46

 C     -3.5702267212     -1.1250618426     -0.4381472418
C     -2.6364933024     -1.7416465992     -1.3804330256
C     -1.8730347935     -2.6591604347     -0.6717019961
C     -3.068173283     -1.4418663734     0.9094880739
C     -2.1359114287     -2.4578610976     0.7918510153
C     -2.6919916565     -0.2184422933     1.5923108769
C     -3.4436809744     0.2415830086     -0.5864793692
C     -3.114027129     0.86341609     0.7081884266
C     -1.9458607209     -0.707803616     -2.1344980021
C     -2.5547747498     0.5397974931     -1.7219259968
C     -0.5249385014     -0.7841946719     -2.3630293126
C     -0.4831699366     -2.7739928041     -0.8618167612
C     0.1995228246     -1.9529806605     -1.8239884153
C     -0.8744591365     -2.4061682661     1.4329525917
C     0.1049872103     -2.9094360816     0.4761272399
C     -1.4278482293     -0.134826689     2.2853602833
C     -0.505286612     -1.2755854983     2.2558904483
C     -0.8297752283     1.1932618728     2.3539193094
C     -2.4462426983     2.0776709349     0.6936150417
C     -1.4025054197     2.2726779273     1.6627078473
C     -1.8209958102     1.7243121526     -1.6842210471
C     -1.9587667222     2.6164573993     -0.5708423977
C     0.22640708     0.4873622918     -2.4944339314
C     -0.4208441139     1.7137488168     -2.1178393003
C     1.6675660518     0.4775423258     -2.3693816498
C     1.6346517727     -1.8786327356     -1.6577874131
C     2.3541007782     -0.7369906951     -2.0443557505
C     1.4594164087     -2.722690826     0.6899635215
C     2.2587513997     -2.3613114622     -0.4288082325
C     0.9248808007     -1.0499159078     2.4116768613
C     1.8685503838     -1.8678781777     1.7857376601
C     0.6420968947     1.3865109967     2.3470968363
C     1.4965430531     0.3192449773     2.4109798434
C     -0.3188407653     3.0072775615     1.0102921816
C     -0.6583345805     3.182224759     -0.3445745922
C     0.2776491082     2.7116326669     -1.3332012751
C     0.9433747483     2.5042274421     1.4361991361
C     2.3362743512     1.5100340538     -1.6270142676
C     1.616590022     2.4942744628     -0.9488965223
C     1.9727516669     2.3672249202     0.4996379008
C     3.4109051522     -0.4615365139     -1.0292088531
C     3.3127789058     -1.4522551553     -0.0136738795
C     3.0038983343     -1.0593096788     1.3079862442
C     2.7532895804     0.3096161825     1.6418883092
C     3.2939898526     0.8740790389     -0.6988965552
C     2.9472081333     1.3053687059     0.6412871393


