46

 C     3.9025752106     -1.2050869278     0.0968705653
C     3.9812162274     -0.09755306     -0.77463301
C     3.9160949564     1.1591349383     -0.1293531874
C     3.4330059174     -0.6180127122     1.3499425197
C     3.4422289143     0.8287245527     1.2115021042
C     2.21006572     -1.2508356944     1.7129544979
C     2.7942394032     -1.9885587537     -0.397495473
C     1.8647156525     -2.2011555008     0.6338369068
C     2.9453283129     -0.1943212966     -1.8374328346
C     2.2322483592     -1.4058173055     -1.6289351959
C     2.8162001636     1.843671232     -0.7646633587
C     2.2457474198     1.0416333661     -1.8626974841
C     2.2254637329     1.5324276812     1.4461507194
C     1.8894749615     2.262088614     0.2057023136
C     1.1215734616     -0.5298990786     2.3051298708
C     1.1299879715     0.9493722688     2.1635151932
C     -0.134720792     -1.1806078482     2.3109322575
C     0.5054909805     -2.5143524138     0.3409045085
C     -0.404129157     -2.3001434871     1.4161446127
C     0.8259450149     -1.4431182197     -1.8596674992
C     -0.0004725249     -2.3210556733     -1.0177262491
C     0.8397070937     1.0507540719     -2.0982760126
C     0.1882848924     -0.2301733919     -2.3726543426
C     0.5341498815     2.5283163768     -0.1436749083
C     0.0243648688     2.0833462752     -1.4410778007
C     -0.119409924     1.602722781     2.0435058806
C     -0.3772652275     2.5332506249     0.951247287
C     -1.4002144438     -0.4668680969     2.4961443374
C     -1.3925901386     0.951020007     2.3598234257
C     -1.8080792124     -2.3384262013     1.1970745241
C     -2.4482762116     -1.1953541732     1.884356581
C     -1.416974091     -2.305016987     -1.2048086132
C     -2.330576122     -2.4411505691     -0.0729480672
C     -1.2355682952     -0.2360412339     -2.5164889395
C     -2.0051173568     -1.3544044128     -2.0702849189
C     -1.3919461628     2.0475706714     -1.6231781942
C     -1.9917101742     0.955385137     -2.2917465038
C     -1.7812513724     2.5441608879     0.7272159679
C     -2.4332737222     1.5606569666     1.6192674169
C     -2.3034544955     2.4078940959     -0.5396043468
C     -3.4098705151     -0.609438562     1.0042860195
C     -3.4120778662     -1.4385536616     -0.1996783105
C     -3.2404853963     -0.8389392243     -1.4423812101
C     -3.2321653543     0.5834979717     -1.5791225922
C     -3.4023362956     0.8278786266     0.8659284704
C     -3.3961422658     1.4113763383     -0.4739069275


