46

 C     3.6355577771     -0.2855342341     0.9515799371
C     3.6225677239     -0.9901547391     -0.2343058681
C     2.7320033135     -2.1291630256     -0.139985803
C     2.6384869922     -0.9084592074     1.8440811526
C     2.0779642574     -2.0765639253     1.140974615
C     1.7607102229     0.0981525278     2.1967455264
C     3.2957656947     1.0884235287     0.7027025091
C     2.2036893923     1.3909424531     1.5302743634
C     3.2210047466     -0.1116658718     -1.3297551507
C     3.0947210409     1.2277906817     -0.7617804723
C     1.9082913401     -2.0452958197     -1.3067476511
C     2.1166018974     -0.7276918397     -1.9550102344
C     0.6364767179     -2.5448551998     -1.2344363293
C     0.6971194829     -2.3895540958     1.2561986488
C     0.1019362601     -2.9891234475     0.0692694491
C     0.3437351544     -0.166922578     2.4017731637
C     -0.1860446413     -1.5149465559     2.0508859815
C     -0.4950881935     0.9543852399     2.3886682187
C     1.2261632372     2.3543758987     1.146806337
C     -0.0541896668     2.2605756011     1.7844108472
C     2.0450568707     1.9956007516     -1.1876382677
C     1.2811146641     2.8284844987     -0.2320757051
C     0.9437625355     0.0430634687     -2.3734073643
C     1.0619892565     1.4601752719     -2.152501848
C     -0.4713757366     -1.9655574674     -1.9664643467
C     -0.3847290854     -0.5711991158     -2.3886067806
C     -1.2743533153     -3.1155792989     -0.0832856817
C     -1.6471356437     -2.5035645612     -1.3976131958
C     -1.5935011111     -1.6383967987     1.8811122868
C     -2.1476425899     -2.5531114379     0.8704576155
C     -1.9184926997     0.815604414     2.1250626871
C     -2.4454866192     -0.4683937927     1.8610475309
C     -1.1893591264     2.8248743107     1.1797216211
C     -2.3402432478     1.9308122945     1.3594658834
C     0.078795841     3.1852255317     -0.8617302737
C     -0.0994753101     2.2319494951     -2.0053338504
C     -1.1321445144     3.2568656061     -0.1838097925
C     -1.5917281836     0.2564213548     -2.1542567415
C     -2.8739496457     1.6686276873     0.0494783571
C     -1.39560535     1.6783547274     -1.9608308292
C     -2.0723081627     2.3762051712     -0.8820764196
C     -2.7793039606     -1.718669108     -1.1673788623
C     -3.2506423846     -1.9276605156     0.2032041248
C     -3.3699485711     -0.6317738653     0.7458181102
C     -2.733669242     -0.3118200174     -1.4795303046
C     -3.2770974175     0.3587450042     -0.3011761937


