46

 C     3.8850939636     -0.2080671274     -1.1535864962
C     3.9410130796     -1.0378638743     -0.016882903
C     3.872110421     -0.2941113301     1.1771122462
C     3.5423644584     1.1455083665     -0.6517282518
C     3.5345279581     1.093033369     0.7727134073
C     2.3523207699     1.5712808678     -1.3124761004
C     2.7436435583     -0.6416026772     -1.890836036
C     1.873585622     0.448513969     -2.1458180274
C     2.8456095942     -2.0543418977     -0.0602918713
C     2.1288057511     -1.8326023944     -1.2689413259
C     2.7228950884     -0.7803979224     1.8680736799
C     2.1155462492     -1.9220302261     1.153886036
C     2.3373080039     1.4694270292     1.4501108083
C     1.8499379048     0.2885577679     2.1933380087
C     1.3582468435     2.3401378154     -0.6394554429
C     1.3502873275     2.2862610739     0.8248750007
C     0.0823084565     2.4057336141     -1.2984597092
C     0.4802215075     0.2319548468     -2.3734599245
C     -0.3628353829     1.3506809672     -2.1813551405
C     0.7265357521     -2.006899783     -1.3056890206
C     -0.0910369527     -1.1110822052     -2.135591171
C     0.713175952     -2.0980497165     1.1622259634
C     0.0801779108     -2.5099820051     -0.0921630245
C     0.4541979171     0.0563688363     2.3891420443
C     -0.1138623495     -1.2651838934     2.0467932909
C     0.0671966466     2.3035824208     1.4729903336
C     -0.3870982157     1.1866281982     2.2708131925
C     -1.0803859985     2.8442551083     -0.6023276019
C     -1.0880153027     2.7926691409     0.798337745
C     -1.8228822324     1.2113080063     -2.0315565829
C     -2.279952914     2.1677340068     -1.0930145089
C     -1.4913772507     -1.2600385654     -2.0860926619
C     -2.3978714367     -0.076233795     -2.0713408569
C     -1.3135630999     -2.6925953995     -0.1064976252
C     -2.0828515453     -2.2672785     -1.2555239425
C     -1.5134687335     -1.409573311     1.9712828122
C     -2.0955081429     -2.3526904152     1.0624126416
C     -1.8454287426     1.0592105142     2.0954281972
C     -2.2925924854     2.0822729569     1.2248122988
C     -3.0432747436     1.7141724453     0.0466489737
C     -2.4202614107     -0.2274961758     2.034049132
C     -3.4655308541     -0.3769289708     -1.1791949963
C     -3.3503612518     -1.7797647103     -0.7828743603
C     -3.3577029944     -1.8310575354     0.6130634358
C     -3.6832498243     0.4477957425     -0.0035049849
C     -3.4779998721     -0.4612146317     1.1105523189


