46

 C     -3.383107884     -1.6681243733     0.3285798884
C     -3.5390519112     -0.2783184446     0.5657238028
C     -3.4571236687     0.4458644981     -0.6735930623
C     -2.8256132549     -1.7560046184     -1.0195916497
C     -2.9012491759     -0.4963268957     -1.6493435628
C     -1.5709420194     -2.4410065896     -1.0148822689
C     -2.3187125134     -2.1044742841     1.1751132231
C     -1.3326700124     -2.7792967942     0.3963353478
C     -2.6543941611     0.1253960551     1.6592587767
C     -1.8332114315     -1.0325995298     2.0139395355
C     -2.0888081818     1.3909288015     1.62980424
C     -2.7357129104     1.645986794     -0.7471546651
C     -2.2701245786     2.2521732887     0.4660121394
C     -1.7557999084     0.1028594263     -2.2540107396
C     -1.7593423448     1.5075551777     -1.8509479642
C     -0.4598412484     -1.9654131149     -1.7843412589
C     -0.5080706226     -0.6083175638     -2.3635072206
C     0.8267106855     -2.4892648913     -1.3816556704
C     -0.0380785108     -2.8728098888     0.9093563284
C     0.9966335781     -2.9991877648     -0.0203274336
C     -0.4243442925     -0.9021632638     2.3409586756
C     0.4387161395     -1.9658737776     1.9576599364
C     -0.711056605     1.5977687456     2.1231196573
C     0.1624119763     0.4612402223     2.4443593256
C     -1.1218820786     3.0830976568     0.3984878195
C     -0.2008382615     2.7526559531     1.5099153322
C     -0.5824143404     2.2406919045     -1.8406403135
C     -0.3487235517     3.1614155595     -0.7521641305
C     0.7422830074     0.1892827384     -2.3997662271
C     0.6834202506     1.5849144584     -2.1355441901
C     2.0205578681     -1.822991333     -1.6691856371
C     2.0228458666     -0.4686897882     -2.1074534544
C     2.2466113836     -2.5409082715     0.5511430403
C     1.8717514022     -1.7711605281     1.7257181035
C     2.9577932659     -1.9355430094     -0.4903311615
C     1.552766108     0.6365699686     2.2418461699
C     2.4367558375     -0.4926725997     1.8971029883
C     1.1407612845     2.787338774     1.0329535493
C     1.067628061     3.0701828551     -0.3901209656
C     1.7231958112     2.2306514354     -1.2976781255
C     2.0437745758     1.8117824387     1.4957728161
C     3.0671506455     0.2075734605     -1.3894083693
C     3.5617175701     -0.7002270195     -0.3137961395
C     3.3837517797     -0.0187167213     0.9158171237
C     2.8378158616     1.4758790348     -0.8374930638
C     3.0360575095     1.3482848184     0.6039584542


