46

 C     2.4434016969     -2.643615565     0.0480497316
C     3.1310542921     -1.3641177824     0.0614587787
C     2.8134327139     -0.6981848216     1.282617558
C     1.5872165886     -2.7117331381     1.1756949567
C     1.7006538617     -1.4608988982     1.8889660368
C     0.297062128     -3.1894675625     0.7440983043
C     1.6327862017     -2.7117150906     -1.1115080618
C     0.3262706346     -3.1893844766     -0.73102405
C     2.8625481313     -0.6981207308     -1.1719812136
C     1.7744971551     -1.4604754     -1.8208182531
C     2.8624526693     0.6979524919     -1.1718775591
C     2.8133542628     0.6979880462     1.2825424492
C     3.1308874593     1.3638851861     0.0614721576
C     1.7006477559     1.4608449674     1.8890915492
C     0.5251788996     -0.7586058217     2.3207499233
C     0.5251807747     0.7585987069     2.3209569138
C     -0.8302425522     -2.6904549378     1.391166241
C     -0.7232831308     -1.4511450317     2.1874169917
C     -2.0556154067     -2.6059297322     0.6563420329
C     -0.7743526655     -2.6903925228     -1.4221668359
C     -2.0278034403     -2.6057482537     -0.7364851002
C     0.6170383381     -0.758466501     -2.2984285195
C     -0.6359721728     -1.4510748078     -2.2141243303
C     1.7744846626     1.4604640525     -1.820900613
C     0.6170468305     0.7585359222     -2.2986295818
C     2.4432137486     2.6433409862     0.0480814308
C     1.5871117722     2.711585184     1.1756592895
C     1.6326690631     2.7115853763     -1.1113979411
C     0.2970410386     3.1896436254     0.7442261303
C     0.3262521508     3.189579556     -0.7310550805
C     -0.7233319092     1.4512399805     2.1878242955
C     -0.830176794     2.6903773721     1.3912004612
C     -1.9604323959     -0.7191481494     2.0062129501
C     -2.7906295188     -1.4054965713     1.0848136302
C     -1.9606536252     0.7193486241     2.0065957733
C     -2.7451428735     -1.4054278433     -1.1939186437
C     -1.8787611419     -0.7191254464     -2.0821740993
C     -3.2883043012     -0.7181992373     -0.0652357679
C     -0.6360236296     1.4512422409     -2.2145007178
C     -0.774292251     2.6903619122     -1.4221138569
C     -1.8789822182     0.7193933316     -2.082564628
C     -2.0555507449     2.6058510656     0.6563545989
C     -2.7907372296     1.4056103419     1.0848792593
C     -3.2882207673     0.7182441555     -0.0652209665
C     -2.0277298165     2.6056795434     -0.7364101162
C     -2.7452472448     1.4055766533     -1.193935508


