46

 C     4.095855124     -0.5539703883     -0.0000955293
C     3.8901608398     0.7965120113     -0.0005184639
C     3.1270380302     1.2280563421     -1.1790442947
C     3.3561163414     -1.0615122856     -1.1829992892
C     2.72557515     0.0530572311     -1.9044190676
C     2.5462291449     -2.0980448085     -0.7530362286
C     3.3562739499     -1.0607457594     1.1832303345
C     2.5463301164     -2.0975615523     0.7540472351
C     3.1271982207     1.2288197791     1.1778336719
C     2.7258316186     0.0542854147     1.9040185126
C     2.1671285917     2.1741850562     -0.7516599691
C     2.1672307827     2.1746687578     0.7499679688
C     0.9325129175     2.197875167     -1.393692119
C     1.366019409     -0.0562958065     -2.3604717727
C     0.558448376     1.1348043831     -2.2999456318
C     1.1982986471     -2.2258006801     -1.1618898406
C     0.6188935889     -1.3147870706     -2.116611844
C     1.1984563373     -2.22505169     1.1631615379
C     0.3981342538     -2.5857485159     0.0008035825
C     1.3663369614     -0.0547740626     2.36032301
C     0.6191788449     -1.3134217784     2.1173723927
C     0.9327010093     2.1987744055     1.3921533621
C     0.5587591291     1.1362881686     2.2991400699
C     -0.2844345105     2.6187968979     -0.7018217861
C     -0.2843393195     2.6192505864     0.7001764539
C     -0.8841913318     1.0986152391     -2.3535384095
C     -1.4232906128     2.0805216225     -1.4087479077
C     -0.7918804695     -1.3150708911     -2.1692575048
C     -1.565053608     -0.1257682223     -2.5107276679
C     -0.9997429809     -2.508207324     0.0008726408
C     -1.6231004813     -2.0959670962     -1.241921504
C     -0.7915887294     -1.3136704527     2.1702071928
C     -1.6229335922     -2.0951657491     1.2434869982
C     -0.8838753103     1.1001344846     2.3529509151
C     -1.4231004329     2.0814301359     1.4076031907
C     -1.5647140389     -0.124149663     2.5110174317
C     -2.626739849     1.8300128866     -0.7318586047
C     -2.6266421566     1.8304860867     0.7310366758
C     -2.8804984263     -0.2819465188     -1.9925670049
C     -2.9174486482     -1.5312452397     -1.2277008896
C     -3.4511173817     0.7025962167     -1.1453978828
C     -2.9172827802     -1.5304543552     1.2290732021
C     -2.8802288688     -0.2806591271     1.9931328751
C     -3.4509610575     0.7033363983     1.1454140991
C     -3.6125017984     -1.2795819089     0.0006539384
C     -4.07304     0.087092675     0.0002449208


