46

 C     4.0182647299     -0.1683111729     -0.3913781107
C     3.5844039492     0.9208173386     0.4168650912
C     3.0667607412     0.4602153212     1.66710989
C     3.5258940942     -1.3664415017     0.2914391558
C     2.9638946356     -0.9799767782     1.5634418514
C     2.7025087491     -2.091139441     -0.5820004206
C     3.2151199361     -0.0749517612     -1.5871562673
C     2.5412663101     -1.2981758025     -1.8159205152
C     2.749971252     1.8283803318     -0.3570122171
C     2.4447765007     1.1609757256     -1.618044583
C     1.7353073493     2.5339512972     0.3018506083
C     1.8259626302     0.9471584184     2.1928029366
C     1.2197442049     2.0597054051     1.6214364053
C     1.6600377718     -1.3818797942     1.961283764
C     0.9545508989     -0.2081009461     2.4646265229
C     1.4045369046     -2.548412108     -0.195092021
C     0.9005173465     -2.3061111498     1.1379942467
C     1.1751041848     -1.3218660499     -2.1602106532
C     0.4973735355     -2.2934926991     -1.2966033664
C     1.1077515015     1.1745066221     -2.1417558925
C     0.4602898806     -0.1113935443     -2.4898849422
C     0.5915323794     2.8608549784     -0.4345709748
C     0.2315074499     2.2036609485     -1.6370368648
C     -0.2315044398     2.2036561151     1.6370440503
C     -0.5915285021     2.8608544221     0.4345802387
C     -0.4602900349     -0.1114007943     2.489884608
C     -1.1077499043     1.1745013174     2.1417597409
C     -0.4973765053     -2.2934962408     1.296596109
C     -1.1751059857     -1.3218713538     2.1602064015
C     -0.9005205445     -2.3061062165     -1.138001551
C     -1.404540402     -2.548410955     0.1950837244
C     -0.9545512037     -0.2080918472     -2.4646272582
C     -1.6600396472     -1.3818713943     -1.9612882982
C     -1.2197414148     2.0597121921     -1.6214297038
C     -1.7353039586     2.533954731     -0.3018423917
C     -1.82596138     0.9471678732     -2.1927998639
C     -2.4447749931     1.1609739923     1.6180484534
C     -2.7499688623     1.8283830488     0.357018168
C     -2.5412680206     -1.2981781321     1.8159164642
C     -2.7025115861     -2.0911376656     0.5819936783
C     -3.2151200882     -0.0749524176     1.5871561443
C     -2.9638961797     -0.9799678895     -1.5634450395
C     -3.0667601933     0.4602247665     -1.6671083266
C     -3.5844029546     0.9208236623     -0.4168620703
C     -3.5258960837     -1.3664359405     -0.2914436095
C     -4.0182650513     -0.1683069116     0.3913776881


