46

 C     -3.3249779357     0.6871904025     -0.995043605
C     -3.3249721961     -0.6872090002     -0.9950495685
C     -3.3020618292     -1.149409643     0.4247842871
C     -3.3020713282     1.1493788578     0.4247942999
C     -3.1415663355     -0.0000185153     1.2843312698
C     -2.4352350547     2.2171256957     0.4952820288
C     -2.3216440714     1.4399193739     -1.7264229241
C     -1.8555500837     2.465534801     -0.837444649
C     -1.3544856496     0.7264385896     -2.4682886604
C     -2.3216321052     -1.4399233776     -1.7264352813
C     -1.3544795339     -0.7264280942     -2.4682950112
C     -2.4352165713     -2.2171496697     0.49526261
C     -1.8555295619     -2.4655418566     -0.8374658574
C     -1.3696224165     -2.2677573759     1.4590005901
C     -2.0630096545     -0.0000181237     2.2128950359
C     -1.1952307662     -1.1681318825     2.3293045284
C     -1.3696409564     2.2677335954     1.459020422
C     -1.1952404557     1.1681017883     2.329314828
C     -0.4950259157     2.7647455929     -0.686542671
C     -0.2008779813     2.7633141262     0.761962542
C     0.0387076763     1.1637266195     -2.4678861711
C     0.4884641892     2.2138416658     -1.5978760202
C     0.0387169917     -1.163704793     -2.4678964239
C     0.879258805     0.0000150465     -2.6812520761
C     -0.4950028707     -2.7647430172     -0.6865666397
C     -0.200855468     -2.7633221257     0.7619388852
C     0.4884818619     -2.213823883     -1.5978948246
C     1.0823057937     -2.4725170214     1.2261976027
C     0.1563176954     -0.7283312544     2.6846250581
C     0.1563117615     0.7283090123     2.6846314204
C     1.2819818335     -1.4122526317     2.2396219062
C     1.0822857288     2.472515419     1.2262195953
C     1.2819703317     1.4122437109     2.2396344452
C     1.8583180269     2.1713577706     -1.1356634008
C     2.1373766234     2.3686339851     0.3001470237
C     2.2169122356     0.0000188784     -2.246403213
C     2.7245470688     1.1549577356     -1.5556862852
C     1.8583356549     -2.1713325522     -1.1356824634
C     2.1373952839     -2.3686184788     0.3001260831
C     2.7245564563     -1.1549220354     -1.5556961861
C     2.516057737     -0.707640063     1.8951942475
C     2.5160520719     0.7076441183     1.8952005203
C     3.0954252464     1.4063883405     0.7567298991
C     3.5293543056     0.6941586396     -0.3867203769
C     3.0954364316     -1.4063695636     0.7567176596
C     3.5293599305     -0.694126806     -0.3867264793


