46

 C     3.3993939985     -1.2019679183     0.8393242698
C     3.5985168263     -0.3035472551     -0.2907136925
C     3.0372577583     -0.9208790605     -1.4200284438
C     2.5364844732     -2.2976070085     0.4197187378
C     2.3430498427     -2.154616252     -0.9491234344
C     1.3603570305     -2.3151806178     1.2726377285
C     2.7260392339     -0.5003027959     1.8296913408
C     1.4968707601     -1.2050290809     2.1967669385
C     3.1795525388     1.0296026896     0.0898138025
C     2.6676483702     0.9184450719     1.4828296809
C     2.4549285756     1.7960278551     -0.8268057434
C     2.1240164624     -0.2226664187     -2.2437149996
C     1.9672681395     1.1766614544     -2.0674393809
C     1.0371720567     -2.1903982068     -1.5206207691
C     0.910466892     -1.044255623     -2.4002675214
C     0.083536757     -2.6420682821     0.7426908464
C     -0.0835321957     -2.6420638552     -0.7427062019
C     -1.0371685554     -2.1904093993     1.5206084469
C     0.3689137593     -0.4583437131     2.632678104
C     -0.9104650089     -1.0442712708     2.4002623028
C     1.5769351224     1.6465290487     1.8988163735
C     0.465273506     0.9994332923     2.6271324153
C     1.4019990016     2.7139100631     -0.3445083773
C     1.001239145     2.6815528222     1.0155418336
C     0.6884852182     1.7359730673     -2.3361077505
C     0.374779862     2.7587578374     -1.3187760413
C     -0.3689124002     -0.4583289288     -2.6326805835
C     -0.465274405     0.9994476428     -2.6271263841
C     -1.3603531404     -2.3151755773     -1.2726514764
C     -1.4968684805     -1.2050188002     -2.1967745655
C     -2.343047239     -2.1546266377     0.9491112145
C     -2.5364816618     -2.2976097774     -0.4197327473
C     -2.1240166503     -0.222682922     2.2437147367
C     -3.0372575684     -0.9208928242     1.4200235968
C     -0.6884875564     1.7359590088     2.3361186678
C     -0.3747837947     2.7587501547     1.3187923029
C     -1.9672704199     1.1766467665     2.067447038
C     -1.0012426992     2.6815568683     -1.0155262794
C     -1.5769368859     1.6465373877     -1.8988068702
C     -1.4020030157     2.713906109     0.3445240714
C     -2.4549315727     1.7960194325     0.8268162123
C     -2.7260385064     -0.5002966737     -1.829695134
C     -3.3993936581     -1.2019693398     -0.8393325089
C     -3.5985177211     -0.3035550428     0.2907115141
C     -2.6676496529     0.9184495101     -1.4828249769
C     -3.1795545418     1.0295981994     -0.0898082932


