46

 C     3.8017510105     0.1876071449     0.7815099586
C     3.7892694935     -0.325890755     -0.5620295093
C     3.1333237994     -1.5977245524     -0.6109019804
C     3.0744061873     -0.704671083     1.5692472074
C     2.6357073033     -1.8342598502     0.7097597002
C     2.034551789     0.0605344228     2.2376153431
C     3.1000164274     1.4788976303     0.7756053322
C     2.0549642334     1.4524364683     1.7215766325
C     3.0946226637     0.5895894556     -1.3931898375
C     2.7778119696     1.7867214576     -0.6076623367
C     2.1466629188     -1.4969279831     -1.6801360962
C     2.0636579091     -0.0982498547     -2.1338753396
C     0.9791367753     -2.1939176655     -1.5780956928
C     1.3318973565     -2.3977591502     0.9021119583
C     0.6354013993     -2.8516097335     -0.2881192756
C     0.8130658277     -0.52489639     2.4680817468
C     0.4861680492     -1.8503537932     1.9303288042
C     -0.4222731293     0.259645898     2.5192077028
C     0.8134197127     2.1540368024     1.4788558625
C     -0.4496058861     1.6124162087     2.0395274575
C     1.583174784     2.4005729084     -0.8679693006
C     0.7269878436     2.8368831168     0.2250746898
C     0.7933716352     0.5134430598     -2.3756680982
C     0.667160361     1.8878050566     -1.9302751555
C     -0.2683158249     -1.6831119382     -2.1322607359
C     -0.4481054388     -0.3002801914     -2.4383226954
C     -0.7385464189     -3.0581076057     -0.278689312
C     -1.3135632684     -2.4405174388     -1.5050690976
C     -0.9420209555     -1.9299239367     1.865025559
C     -1.5181504113     -0.6491866292     2.3159578267
C     -1.5725488664     -2.649362727     0.8087408658
C     -2.7402359938     -0.1817743982     1.7827849599
C     -1.7255627153     2.0735657134     1.5111686179
C     -2.8277850157     1.1932351519     1.4346717535
C     -0.5489733541     3.0981873951     -0.3636656158
C     -0.5860479787     2.41691724     -1.6850389987
C     -1.7258099263     2.8487672023     0.268197957
C     -1.7949429082     0.3028073955     -2.1669710475
C     -3.3835636987     1.2636558942     0.0425406724
C     -1.8292620017     1.7040407761     -1.8069629435
C     -2.6234708163     2.1590367725     -0.695389172
C     -2.5349677916     -1.8965065681     -1.2280885313
C     -2.7844715046     -2.1049260635     0.2311263908
C     -3.3608389331     -0.9539206876     0.7067273164
C     -2.8276383863     -0.5263765997     -1.5666445719
C     -3.5698282254     -0.0305485762     -0.4304199712


