46

 C     -3.4823753483     -0.0008802014     -0.6520937856
C     -3.2434867053     1.3047232885     -0.3177867835
C     -2.3772956389     1.8911545142     -1.3777130997
C     -2.7484187066     -0.2859622941     -1.9227235122
C     -1.9307990477     0.8427455785     -2.2634512358
C     -2.2045290764     -1.5453615879     -1.792734805
C     -3.2118497557     -1.0823304978     0.2841993753
C     -2.5277165265     -2.0920719555     -0.4589166449
C     -2.7194999349     -0.7478494447     1.5803877255
C     -2.6626995706     1.668104621     0.9760079776
C     -2.3819443157     0.6466469864     1.9034267381
C     -1.4766726073     2.7200327709     -0.7589324486
C     -1.643349825     2.6286308649     0.6993822186
C     -0.0826688175     2.6791490124     -1.0700757824
C     -0.5138651305     0.6693947253     -2.5070501816
C     0.4123131828     1.7272200045     -2.0301643001
C     -0.8336559941     -1.7873083131     -2.0862433278
C     0.0068786336     -0.7154705035     -2.5496377377
C     -1.365221885     -2.7447679384     0.0104362657
C     -0.3487714639     -2.6829010525     -1.035984395
C     -1.674500259     -1.5591243795     2.1187519863
C     -0.9404219139     -2.5005055077     1.3491080365
C     -1.0787043103     0.6554006743     2.5805877776
C     -0.7030142305     -0.7020977053     2.7660045119
C     -0.3490177726     2.5979342346     1.2623865695
C     0.6132758757     2.8789643022     0.1877299268
C     -0.0297349611     1.5899378657     2.2502505208
C     1.9385677095     2.4794051832     0.3164201353
C     1.8253576096     1.4365412869     -1.9224563923
C     2.5833019626     1.9070819187     -0.8109975366
C     1.4273458448     -0.9457672995     -2.3960383344
C     2.3233887396     0.117684593     -2.2162773367
C     1.0071070535     -2.7268540227     -0.7084005435
C     1.9010370538     -2.0121777336     -1.5166097761
C     0.494424829     -2.3604835839     1.6671529921
C     0.617754183     -1.2078515707     2.5776967552
C     1.4576043544     -2.5463789724     0.6956107157
C     1.3457592389     1.1259363676     2.3206362823
C     2.317191666     1.6681832728     1.4624141443
C     1.6681533913     -0.3129145988     2.4311417569
C     3.4792935901     0.8164033987     -0.342411243
C     3.3624821384     -0.2576695619     -1.2299738578
C     3.0151864807     -1.5281873739     -0.7249072861
C     2.6797460819     -1.7259859051     0.6618374599
C     3.2598382466     0.6394898559     1.0366928911
C     2.7942089316     -0.6198643162     1.553316583


