46

 C     -3.6714994989     0.7799546885     0.5555608501
C     -3.5408112582     -0.6074893652     0.6443531145
C     -3.4034901985     -1.1247683637     -0.7047194517
C     -3.253289677     1.1665900578     -0.8175009629
C     -3.1264932294     0.0319034965     -1.6076520727
C     -2.1689600285     2.0903524649     -0.734627307
C     -2.7172399327     1.3684861025     1.4346848449
C     -1.9404812758     2.3184694875     0.7209329601
C     -2.4971602194     -0.9239952998     1.6304706573
C     -2.0041460542     0.3435069817     2.1661042748
C     -1.5760309797     -1.9829766225     1.3914440785
C     -2.4618100987     -2.0790169805     -0.9613535759
C     -1.5833683371     -2.6089527092     0.0593851163
C     -1.8922890036     -0.2402695157     -2.3173012662
C     -1.5938023957     -1.6171784029     -2.0696234858
C     -1.0223824023     1.9611565914     -1.578096806
C     -0.8047489284     0.6967727458     -2.3252533252
C     0.1400892598     2.6950959191     -1.1390026012
C     -0.6658701907     2.648952156     1.1847972787
C     0.2724672823     3.1056664151     0.2377372233
C     -0.6069860286     0.5375902906     2.4795212288
C     0.0469165526     1.7679001457     2.0961700764
C     -0.2871264538     -1.8920528055     2.0392850495
C     0.2313364659     -0.6080703051     2.527938308
C     0.8205233613     -2.5893434165     1.5328613998
C     -0.3391291128     -2.8700701397     -0.5847532284
C     -0.3049743323     -2.0908641647     -1.8619083019
C     0.8354624921     -2.9897396238     0.1637204552
C     0.5685985011     0.1602505761     -2.4253397357
C     0.8188345612     -1.2574453981     -2.1569894153
C     1.430945494     2.3360100372     -1.5886627559
C     1.6736363879     1.0834889462     -2.1785868932
C     1.5985999072     2.7914152354     0.7003871866
C     1.470312077     1.8441496353     1.7785874429
C     2.3855741305     2.4925667447     -0.4316627382
C     1.6784980601     -0.5408955393     2.3039953167
C     2.0435606874     -1.8092133783     1.7764977526
C     2.3098004009     0.6680153745     1.8052385804
C     2.0719589842     -2.5395554694     -0.4201549972
C     2.0863076412     -1.6777533621     -1.5340454966
C     2.882104417     -1.9131340364     0.6559854067
C     2.9397856815     0.6100910926     -1.6238850831
C     3.2345909532     1.4221758737     -0.4171670451
C     3.2994866622     0.5141567724     0.7305067646
C     3.1212687858     -0.6983687672     -1.2894539636
C     3.5014318898     -0.7735631657     0.1515761421


