46

 C     3.51176614     0.6100060822     0.0249956503
C     2.9671618409     1.8464924185     0.2146932818
C     2.2666799763     2.2347118255     -1.0492625028
C     3.152461083     0.1600619324     -1.3613144433
C     2.2050437424     1.0882628956     -1.9200643515
C     2.9066331371     -1.1861415129     -1.3094479582
C     3.2396337766     -0.496269101     0.9297448029
C     3.0713146266     -1.6536156738     0.0963654766
C     2.3133538114     -0.2796098088     1.9861842729
C     2.0533351905     2.1098571208     1.3199705516
C     1.706651003     1.0313830455     2.1755364905
C     1.1299407321     2.9061322011     -0.6874485746
C     0.9956050665     2.894921906     0.7798456409
C     -0.1419861643     2.5994102994     -1.2603629291
C     0.9164784832     0.6213020109     -2.3917518912
C     -0.2588550531     1.5004292449     -2.1857228259
C     1.6820094412     -1.719870082     -1.8420536501
C     0.6858450477     -0.842743304     -2.3984163969
C     2.0563887201     -2.5655039666     0.3315136414
C     1.2508398802     -2.6981220693     -0.8808910017
C     1.269383365     -1.2740070071     2.2481556818
C     1.1238795911     -2.4006916075     1.4156218918
C     0.3075741246     0.8468858325     2.5478196173
C     0.0681866224     -0.5776035009     2.6583233247
C     -0.3666309061     2.6886587157     1.0734597654
C     -1.1128693137     2.7594213782     -0.1937215755
C     -0.747278004     1.6987940707     2.0561670152
C     -2.3638856987     2.1587080531     -0.3032241273
C     -1.5881742331     0.9445253227     -2.309729108
C     -2.6381989501     1.364987927     -1.465139998
C     -0.675837872     -1.3463202852     -2.3411572449
C     -1.7628410019     -0.4912834416     -2.4652862014
C     -0.0969109155     -2.9320903444     -0.5389370474
C     -0.2093421637     -2.8027434427     0.9286271168
C     -1.0814955518     -2.3857263181     -1.3543646204
C     -1.2110388882     -1.1293270067     2.4127543802
C     -1.353195783     -2.2479639634     1.4506353345
C     -2.0801567926     1.1407391129     1.9487694115
C     -2.8987218284     1.45148792     0.8286213718
C     -2.2915528314     -0.2679159774     2.1914851391
C     -3.4331261483     0.1797500173     -1.0376223592
C     -2.8752310319     -0.9525160072     -1.6303472322
C     -2.3799974671     -2.0396097306     -0.8207002502
C     -2.5255580338     -1.9683400874     0.6005013927
C     -3.6085039364     0.2469518247     0.3615816043
C     -3.1787798326     -0.8258649188     1.1655904336


