46

 C     -3.6458113274     -1.3452525615     -0.2756076239
C     -3.8195087872     -0.1082590499     0.364850244
C     -3.300173545     0.9192969031     -0.4624547934
C     -2.8420307482     -1.0549795964     -1.4991751952
C     -2.6413330981     0.3498587872     -1.6340057163
C     -1.7153890936     -1.9069897874     -1.5832558405
C     -2.7333581219     -2.0655212184     0.5337083615
C     -1.7167779257     -2.6373111537     -0.2813948021
C     -2.9725757409     -0.0393639857     1.5656283484
C     -2.280195027     -1.2625772784     1.6945410515
C     -2.598846286     1.8772366337     0.3446318571
C     -2.2726569909     1.2206648813     1.6228961435
C     -1.6801131736     2.6671223429     -0.2984778539
C     -1.3711170407     0.8888787479     -2.0624446038
C     -1.085115912     2.22367515     -1.603650052
C     -0.4640037872     -1.4558842055     -2.0978465548
C     -0.2462344216     -0.0169739157     -2.3560435789
C     0.6730852465     -2.2826395583     -1.7374422268
C     -0.526433587     -2.9675161624     0.3276274861
C     0.6072738662     -3.0810978033     -0.50154469
C     -0.8901973546     -1.2750985122     2.0936041795
C     -0.0938160017     -2.3514291631     1.602432996
C     -0.9339153334     1.2908097387     2.0826812735
C     -0.2128816438     0.017959098     2.3929600448
C     -0.617147552     3.200628747     0.4789754926
C     -0.1604466178     2.4353436876     1.6232556515
C     0.2212742235     2.7276989851     -1.5983149655
C     0.4730940168     3.5274060669     -0.378843047
C     1.1269654693     0.5113635981     -2.2721324274
C     1.3362299548     1.8647784035     -1.8393445998
C     1.9721894786     -1.782626776     -1.7821705112
C     2.2257434302     -0.3995639526     -1.9750938807
C     1.7847457629     -2.9120279968     0.2741041551
C     1.3414639801     -2.2936969973     1.5416029034
C     2.7086139176     -2.2361910149     -0.5415060007
C     1.2024336285     0.0322404941     2.3690327845
C     2.002535663     -1.1346339288     1.9910108837
C     1.2593780151     2.3636782039     1.4855523225
C     1.6331563414     3.0116198214     0.1891301275
C     2.2941116203     2.1601507076     -0.7637336322
C     1.9473382776     1.2236760232     1.9065295804
C     3.2387621916     -0.0324833858     -1.0117834217
C     3.420031021     -1.1568905077     -0.0604209064
C     3.1476079774     -0.643932236     1.246961021
C     3.1340295418     1.1516073063     -0.2754005747
C     3.0700174929     0.7772454206     1.1603725909


