46

 C     3.2758587747     1.1516814087     0.2345587068
C     2.4131318286     2.2096725717     0.3856579673
C     1.7316151957     2.4667922582     -0.9039297725
C     3.1310489243     0.6819747952     -1.1791327281
C     2.0633594358     1.432898981     -1.820761047
C     3.1310499706     -0.6818899678     -1.179179044
C     3.1900991302     -0.0000350971     1.1038862926
C     3.2758604866     -1.1516920525     0.2344808459
C     2.2166071298     -0.0000707243     2.1326633371
C     1.4251325159     2.2567088218     1.4318045437
C     1.3564766829     1.1692759592     2.3264908804
C     0.4040968133     2.845479467     -0.6280855477
C     0.190207712     2.7775336661     0.840353034
C     -0.5912252767     2.4072229432     -1.5038379356
C     1.0056282607     0.7485112995     -2.5289526204
C     -0.2680508851     1.4178829835     -2.5180701396
C     2.0633616205     -1.432772199     -1.8208578761
C     1.0056290055     -0.7483382731     -2.5290032701
C     2.4131351439     -2.2096948553     0.385508204
C     1.7316188996     -2.466727374     -0.9040969186
C     1.3564786678     -1.1694310981     2.3264110941
C     1.4251363105     -2.2568035851     1.4316510155
C     0.0492794046     0.7284962922     2.799966968
C     0.0492806268     -0.7286860007     2.7999174824
C     -1.0435768905     2.4117315919     1.3401217221
C     -1.1146854611     1.4242406673     2.4253902245
C     -1.9514488273     2.153833918     -0.9928992638
C     -2.1774116884     2.1614253447     0.4302026622
C     -1.4824796759     0.6850657226     -2.7281027166
C     -2.5281543965     1.1456071303     -1.7703666084
C     -0.2680484614     -1.4177127186     -2.5181661894
C     -1.4824782721     -0.6848831453     -2.7281482519
C     0.4041011525     -2.8454356754     -0.628278483
C     0.190212398     -2.777590114     0.8401644262
C     -0.5912211487     -2.407122049     -1.5040007948
C     -1.1146828425     -1.4244069768     2.425293671
C     -1.0435725487     -2.411824024     1.3399579886
C     -2.3300592487     0.6933124348     2.2331609055
C     -2.9801541305     1.1510153075     0.986437986
C     -2.3300577932     -0.693467729     2.2331136543
C     -3.1657642464     0.0000371541     -1.179322326
C     -2.5281522502     -1.1454913516     -1.7704439213
C     -1.9514448348     -2.1537697669     -0.9930450543
C     -2.1774074209     -2.1614581111     0.4300561745
C     -3.3981790484     -0.0000106338     0.2250708597
C     -2.9801517428     -1.151087196     0.9863598628


