46

 C     2.92719814     -1.8994684735     -0.5396714444
C     3.2678085587     -0.5456396197     -0.8711810262
C     3.2805483032     0.2175642212     0.3537442076
C     2.5599600393     -1.9791732585     0.8089252944
C     2.716159228     -0.650266753     1.4022621496
C     1.3123155513     -2.7119147676     0.8926482324
C     1.8331486049     -2.3455427841     -1.3609420104
C     0.8736267398     -2.9791804793     -0.5149306969
C     2.4068723622     -0.1540266606     -1.9359119816
C     1.4602760615     -1.2629597084     -2.2192998173
C     1.9380292459     1.1763236001     -1.9741200655
C     2.9008207135     1.5637661898     0.2864622645
C     2.3530391687     2.0598516249     -0.9547237163
C     2.0418374216     2.094604433     1.3119026008
C     1.6953002025     -0.1677290983     2.2631412104
C     1.3791704142     1.2636989905     2.2229706364
C     0.3722038431     -2.3185140116     1.8172446027
C     0.5897328686     -1.0615400292     2.5812835448
C     -1.0659813067     -2.4407240027     1.5332511095
C     -0.4604486987     -2.8506115945     -0.848181435
C     -1.4869133889     -2.7391153933     0.2104562678
C     0.0794507709     -0.9940306862     -2.4684472729
C     -0.8512319737     -1.9699805923     -1.9442311417
C     0.5304729216     1.4740532032     -2.3087351104
C     -0.3954403213     0.4274286879     -2.5983334332
C     1.2330573203     2.9658230403     -0.671313733
C     1.058924843     3.0173396644     0.7065299511
C     0.1382717826     2.6408932226     -1.5283702301
C     -0.0215861787     1.740087404     2.316545399
C     -0.2195932516     2.7800855206     1.3037092583
C     -0.6822604105     -0.5361414304     2.8050833333
C     -1.714732572     -1.3740707399     2.2041978624
C     -1.0435552399     0.8488750098     2.5909336442
C     -2.6920907763     -0.5356246464     1.5988039416
C     -2.298765657     0.8679512568     1.8359732756
C     -2.5851770062     -2.0405637878     -0.3265089064
C     -2.206160631     -1.6013109368     -1.6986892524
C     -3.2060965604     -0.9339636861     0.3217485006
C     -1.7907301484     0.7197067912     -2.333946926
C     -2.6912879677     -0.3358495615     -1.9292549502
C     -3.3959616249     0.0858722958     -0.6906790948
C     -1.1673218974     2.7002521191     -0.9833110817
C     -1.3564713566     2.7277134668     0.490709651
C     -2.4515840163     1.8184432565     0.8115151207
C     -2.1359919751     1.8483941122     -1.5243637706
C     -3.0288411458     1.389213591     -0.4448949617


