46

 C     3.4908495781     0.0298756326     1.2716195582
C     3.237895842     -1.2753527344     0.8479911187
C     3.2094133137     -1.2720103645     -0.6108244532
C     3.4910407693     0.8993411381     0.0933071046
C     3.342997581     0.0982358803     -1.0674830097
C     2.5745551357     1.9573404233     0.3149732721
C     2.3725556535     0.4583976011     2.0792781362
C     1.8600751881     1.6996369835     1.5918619114
C     2.0589385178     -1.7632226422     1.5646982669
C     1.4835992445     -0.6347912691     2.3222892749
C     1.1995515574     -2.6157312168     0.9157453083
C     2.1393685498     -1.8707973165     -1.2953257496
C     1.3019993868     -2.768130193     -0.5761361991
C     2.2751316566     0.342912233     -2.0094131459
C     1.5054863715     -0.8785769228     -2.1839648824
C     1.8146120938     2.4232391993     -0.7848325679
C     1.5794313821     1.5456923846     -1.9513665629
C     0.6187672714     3.0810602462     -0.4994981993
C     0.4831295551     2.0002085256     1.7381213431
C     -0.0387418802     2.9604363119     0.7642276888
C     0.071791622     -0.4262361933     2.3891375011
C     -0.4281596409     0.9590575336     2.2734459652
C     -0.2040315637     -2.6431980678     1.2633049362
C     -0.8061394085     -1.569277601     2.015260777
C     0.0267757287     -2.9784807387     -1.0471532406
C     -0.8830250145     -3.1512735947     0.0987123493
C     0.0898090294     -0.859812014     -2.38130172
C     -0.6220697253     -2.0581135441     -1.9681593918
C     0.15550683     1.6111861818     -2.2587682767
C     -0.3615403823     2.7492080661     -1.5509501146
C     -0.6545426144     0.4293696478     -2.383120627
C     -1.4331235493     2.9886898928     0.478263835
C     -1.6188883941     2.7545182204     -1.005045767
C     -1.8418629524     1.131454009     2.0628484659
C     -2.3074621487     2.1764909891     1.1361391225
C     -2.2071802236     -1.3114471156     1.763474885
C     -2.6862992451     0.0174272294     1.8568957646
C     -2.1354349902     -2.7217988146     -0.2713830298
C     -1.973383215     -1.9740978047     -1.5754096018
C     -2.8572890084     -1.9077890557     0.5906393206
C     -2.0637174922     0.4841763508     -1.8957631351
C     -2.5143834493     1.6730022745     -1.1871760823
C     -3.1446414953     1.514051992     0.1259222258
C     -3.5038217509     0.2863811474     0.6279081413
C     -2.6884332942     -0.7608348394     -1.4809015133
C     -3.4091134198     -0.830417051     -0.2020880027


