46

 C     3.5813088779     0.6535013741     -0.6928879978
C     3.2320941831     -0.5053405751     -1.4664526321
C     3.0819897118     -1.5538652725     -0.5388558692
C     3.5390086182     0.360931258     0.7333334765
C     3.2731174335     -1.0167009967     0.8447898683
C     2.6597341786     1.31768303     1.3492736969
C     2.7087884537     1.7118434095     -0.9872128581
C     2.2249363093     2.2484206545     0.2689557401
C     2.093077452     -0.1287185941     -2.2862817889
C     1.7718266383     1.2862269688     -2.0048774911
C     1.0288075421     -1.0139904058     -2.3997813671
C     1.9401003951     -2.3888590054     -0.5427515276
C     0.9798080889     -2.2228337228     -1.5718269255
C     2.2007322765     -1.4896086441     1.6380642365
C     1.4539201217     -2.4821312641     0.8436662466
C     1.6753755084     0.8641838178     2.2416975716
C     1.4574342597     -0.5638830265     2.4257699702
C     0.3653991097     1.5146230241     2.3183771443
C     0.9645752755     2.7795633186     0.2818803906
C     0.0649995272     2.5674422058     1.4358973286
C     0.4313489538     1.7444292991     -1.9733538812
C     0.1222187776     2.7046406263     -0.919286713
C     -0.343705382     -0.5405887424     -2.5616797695
C     -0.6695438762     0.849219967     -2.4177355393
C     -0.4023211241     -2.5197428125     -1.3303129506
C     -1.2355404809     -1.5803092646     -2.0900356843
C     0.1196269324     -2.7105184351     1.0859029422
C     -0.8106366355     -2.9063328609     -0.0276128663
C     0.0439264498     -0.75651553     2.6220135117
C     -0.6547941054     0.5251198448     2.5850475857
C     -0.5964368296     -1.9081153216     2.1034511407
C     -2.0062518243     0.6414098889     2.0731630777
C     -1.2572757932     2.7245278478     0.9852498998
C     -1.2061694934     2.8950526354     -0.4967203938
C     -2.3075605795     1.8318853871     1.2851953223
C     -2.0332779825     1.1536758635     -2.0285122822
C     -2.27916706     2.2323383233     -1.058260727
C     -3.0691615076     1.7004148249     0.0323754301
C     -2.5266084242     -1.2488272732     -1.6395374914
C     -2.9287533933     0.1152766768     -1.6975914156
C     -3.5511027285     0.4606761564     -0.3786289953
C     -2.1034303553     -2.5073971813     0.4250008763
C     -1.9454683962     -1.8149994854     1.7328330105
C     -2.6738626524     -0.5938439381     1.6991428231
C     -2.9776887323     -1.7818026667     -0.3556413069
C     -3.4353997183     -0.6481613838     0.4547561832


