46

 C     -2.9106235411     -1.904675758     -0.892364959
C     -2.8943196961     -1.6219641161     0.5395154669
C     -1.7868346565     -2.2544068396     1.145126375
C     -1.7200798612     -2.5792644616     -1.1945883615
C     -1.0859032043     -2.9447835416     0.0367644715
C     -0.9062257443     -1.7488941462     -2.1031354561
C     -2.8232958089     -0.6212777773     -1.5077510679
C     -1.6209501603     -0.5237237574     -2.3127401225
C     -3.1507852326     -0.2192358543     0.7575566032
C     -3.1491740081     0.4239050832     -0.5881792284
C     -2.4964673641     0.4345358134     1.807699715
C     -0.9725554318     -1.5310504472     2.1115359619
C     -1.3412161763     -0.1991002778     2.431368265
C     0.4356780636     -1.8492500484     2.1655750338
C     0.2919498072     -3.1242496948     0.0696697778
C     1.0044724022     -2.8923109824     1.2910643899
C     0.5365806186     -1.8018988652     -2.0532076198
C     1.1415448471     -2.676339414     -1.0583298788
C     1.2338727811     -0.621271452     -2.4168994685
C     -0.931962648     0.7351961736     -2.4294058704
C     0.5071912376     0.6526905176     -2.6363504947
C     -2.5527731129     1.6775351856     -0.76876335
C     -1.4552448881     1.8611521475     -1.7271692727
C     -2.1779934049     1.8328544386     1.6540574767
C     -2.2267689861     2.4408248463     0.404365664
C     -0.3101814898     0.8523489567     2.6098799509
C     -0.8485909704     2.074478093     2.191016447
C     1.4424995678     -0.8423172799     2.3365918966
C     1.1007749694     0.5547859278     2.4065731325
C     2.3267291913     -2.5568604236     0.9708407598
C     2.377044236     -2.3289643768     -0.469485719
C     2.5754091894     -1.2732895483     1.5413902009
C     2.5162631426     -0.2846835434     -1.8099551965
C     2.9850620739     -1.0478074574     -0.734974401
C     3.1550947546     -0.3796716555     0.5877315047
C     1.3435246085     1.7092928065     -2.2573607115
C     2.5687028225     1.1529729109     -1.7065021644
C     -0.5316801932     2.8587380022     -1.1538759693
C     -0.9661940573     3.1481792935     0.1690582851
C     -0.1072846295     2.947752848     1.2940461445
C     0.8556960622     2.77442566     -1.3951169088
C     1.8928583767     1.4832928822     1.6683390566
C     2.9019529431     0.9906924799     0.7220026934
C     2.777678274     1.7709283464     -0.4783983335
C     1.254114048     2.6644344366     1.0563910306
C     1.7424112485     2.7862748694     -0.2736087488


