46

 C     -3.6595558035     0.7282172522     -0.7878658454
C     -3.6680949805     -0.6392096569     -0.8283923273
C     -3.2887662558     -1.1393994001     0.5036454787
C     -3.275279139     1.1453784092     0.5711242893
C     -2.9999285952     -0.0234163957     1.3847262034
C     -2.3126106297     2.1524068066     0.4485429584
C     -2.6237437819     1.221994282     -1.6855911611
C     -1.8537524177     2.1738971227     -0.9900071723
C     -2.6375656759     -1.0912712295     -1.7537978594
C     -1.9522414396     0.0780201012     -2.275560844
C     -2.3374610256     -2.148100682     0.3223013817
C     -1.8783547326     -2.0906546249     -1.1153510194
C     -1.3524780823     -2.3475398434     1.3024451844
C     -1.7885232453     -0.0538598843     2.1876128588
C     -1.0277663079     -1.2653074437     2.2387232531
C     -1.3259820013     2.2826268087     1.4384592524
C     -1.0141252426     1.1436146107     2.3091763658
C     -0.1447640211     2.9709775175     1.1194285228
C     -0.4734207871     2.3459646684     -1.2825876001
C     0.305017347     3.0214217808     -0.2461891648
C     -0.5332080333     0.0733862679     -2.3979040999
C     0.1888312773     1.3367147723     -2.1266413452
C     -0.5000377889     -2.261048543     -1.4181127417
C     0.1741048177     -1.2116090283     -2.2014280923
C     -0.1794539006     -3.02974928     0.9433744982
C     0.2704535079     -3.0047231021     -0.4231280388
C     0.414807357     -1.2769882736     2.3911185403
C     0.9042866104     -2.4654424742     1.7327840906
C     0.4289170281     1.1297126156     2.4617641071
C     0.9319811801     2.3490810844     1.8740902419
C     1.2125371292     -0.0763367626     2.3667573658
C     1.7237455649     2.8821096986     -0.2226734423
C     2.0959978837     2.3489544603     1.1285127202
C     1.6230988418     1.2948241799     -2.1225205971
C     2.3627488223     2.0916803333     -1.1429994377
C     1.6090437649     -1.1864783528     -2.1952510897
C     2.2899535255     0.0520448987     -2.2213931468
C     1.6905532942     -2.8838684916     -0.3919720626
C     2.0681994912     -2.4349057226     0.987999375
C     2.3390574211     -2.0478840538     -1.2643764238
C     2.5073326848     -0.0617639915     1.6128427546
C     2.8999223377     1.184270951     0.9722255868
C     3.2815543777     1.1906993861     -0.4349208876
C     3.3510037146     0.0149417603     -1.1639963109
C     2.8858417197     -1.2724141727     0.899912157
C     3.2681221885     -1.200965359     -0.5049064763


