46

 C     -3.279385481     -0.9355380773     -0.6151063375
C     -2.7192060824     -0.5040240453     -1.7947127707
C     -1.6708715733     -1.453754131     -2.2115474363
C     -2.5404054491     -2.17305892     -0.224334419
C     -1.4732292906     -2.4193512939     -1.1800484169
C     -2.2483687927     -2.066310641     1.1075146271
C     -3.3405668698     -0.044322384     0.5236523633
C     -2.7827447852     -0.772794426     1.623885626
C     -2.9487467387     1.3126461942     0.351045685
C     -2.2095952517     0.8414470721     -1.9752929398
C     -2.3726021024     1.7616950633     -0.937923387
C     -0.608825642     -0.7261416966     -2.7762247281
C     -0.9164658177     0.7222664141     -2.6729761723
C     0.6907726871     -1.1952207083     -2.5549830818
C     -0.1396352566     -2.7187576814     -0.7366154478
C     0.9171657628     -2.2683009476     -1.6107718637
C     -0.9171633805     -2.2682995703     1.610774264
C     0.1396381851     -2.7187567549     0.7366184972
C     -1.8054012507     -0.2294001192     2.4680743959
C     -0.6907713073     -1.1952185892     2.5549836003
C     -2.148632431     1.9098701792     1.3656491005
C     -1.5050697854     1.1632982371     2.38144126
C     -1.275938792     2.7016559484     -0.6567238087
C     -1.1582332989     2.8064399248     0.7530132323
C     0.1069499947     1.6216156231     -2.4428157227
C     -0.0835389151     2.6660175348     -1.4197198971
C     1.8054017382     -0.229401025     -2.4680745719
C     1.5050690121     1.163297422     -2.3814428222
C     2.2483708776     -2.0663099847     -1.1075124592
C     2.7827456807     -0.7727936232     -1.6238846134
C     1.4732315265     -2.4193485769     1.1800509167
C     2.5404071193     -2.1730560495     0.2243369545
C     0.6088264755     -0.7261382393     2.7762248202
C     1.6708726502     -1.4537497427     2.2115486789
C     -0.1069512567     1.6216177054     2.4428138521
C     0.0835366042     2.6660188042     1.4197171866
C     0.9164649772     0.7222698356     2.6729748501
C     1.1582309013     2.8064403123     -0.7530159199
C     2.1486309473     1.9098708306     -1.365650866
C     1.2759362727     2.7016575624     0.6567211324
C     3.3405666876     -0.0443199292     -0.523652115
C     3.2793858321     -0.935534381     0.6151074468
C     2.7192058888     -0.5040195874     1.7947128987
C     2.2095940868     0.8414510153     1.9752916277
C     2.9487453749     1.3126484379     -0.3510469469
C     2.3726002681     1.7616980083     0.9379217277


