46

 C     3.6115819837     0.938118875     -0.1730985031
C     3.5936993036     -0.4742756976     -0.0118633056
C     3.0419088797     -1.0109557355     -1.1902331802
C     2.911959459     1.2979596648     -1.4255669674
C     2.5910054338     0.088092161     -2.0735936746
C     1.8667280052     2.1880844723     -1.1194372755
C     2.907926343     1.5076966778     0.9000904818
C     1.9562841103     2.4272986711     0.3744202168
C     2.933167284     -0.7875806238     1.2621147342
C     2.4606924147     0.4607591456     1.8292158293
C     2.1001607406     -1.9162116532     1.3153428073
C     2.0339246069     -2.0225215953     -1.1680754345
C     1.6574075726     -2.5937526267     0.0527762096
C     1.2697202255     -0.2075294741     -2.4872497431
C     0.9891833363     -1.5992611226     -2.1206889561
C     0.55887341     2.0344268855     -1.6982275126
C     0.2107637717     0.7756001796     -2.3849509839
C     -0.5018956062     2.7543064456     -1.0282237472
C     0.8033873516     2.6726442309     1.0863836974
C     -0.3311630503     3.1393070929     0.3910071193
C     1.1504057076     0.5543131307     2.4221268448
C     0.3551247634     1.725870966     2.148851165
C     0.9589751164     -1.8895867608     2.1408356936
C     0.4108229328     -0.6608295683     2.6354129734
C     0.2897930897     -3.0337895103     0.2420959974
C     -0.1111568305     -2.6863255821     1.5743573473
C     -0.297662194     -2.0355224759     -1.969061074
C     -0.6520520313     -2.8837330606     -0.8130916366
C     -1.1793454017     0.2841336424     -2.3809694064
C     -1.4150530015     -1.1391842353     -2.2544165295
C     -1.8355145614     2.388726858     -1.2114299986
C     -2.2128996031     1.1626037372     -1.839510096
C     -1.4729802983     2.6917271157     1.0856947564
C     -1.0665753206     1.6868352305     2.0925721015
C     -2.4768768362     2.3988029915     0.1461498023
C     -1.0300998165     -0.729380711     2.4544804791
C     -1.3355128153     -2.0287481952     1.8138429246
C     -1.8044952068     0.435658655     2.1698967488
C     -1.9865426943     -2.5757744537     -0.493182646
C     -2.5142469797     -1.6354182403     -1.4802261992
C     -2.3579761501     -2.1063965757     0.8315531337
C     -3.2965314446     0.6050089761     -1.0537532362
C     -3.24070788     1.2649193872     0.2708928516
C     -2.9759844802     0.2642935541     1.2954948107
C     -3.3696222201     -0.7492541013     -0.8155233504
C     -3.1986004197     -0.9811567471     0.6567657307


