46

 C     -3.4607103824     -0.8911993004     -1.053998794
C     -3.6231404303     -0.0267668297     0.0963394353
C     -3.2161393352     1.2584602553     -0.2802090313
C     -2.7162232802     -0.1320624287     -2.0817989268
C     -2.6581345886     1.2087114245     -1.6420528918
C     -1.5099819616     -0.801856535     -2.4027008347
C     -2.6581950638     -1.9480777735     -0.6601719091
C     -1.5396674486     -2.0494014094     -1.5923283022
C     -2.9861660144     -0.6437146481     1.2466410012
C     -2.3782109155     -1.8852869093     0.7859488209
C     -2.258556511     0.1815222899     2.1363815043
C     -2.3321403361     2.0600765544     0.520622466
C     -1.9064496086     1.5733952534     1.7594704732
C     -1.4464454748     1.9263759384     -1.6738454686
C     -1.3118500187     2.6050221507     -0.3763117899
C     -0.2589062908     -0.0994878218     -2.5638731322
C     -0.2667656658     1.3459863047     -2.2817909769
C     0.9938487825     -0.8672376208     -2.3818736834
C     -0.3796500199     -2.6018624648     -1.159767041
C     0.9006143886     -2.1651798688     -1.7180720445
C     -1.1103694622     -2.3208255537     1.2557753426
C     -0.1957013905     -2.9147583882     0.2853438557
C     -1.0970374515     -0.3381079434     2.740024889
C     -0.4869579105     -1.5724875045     2.3316707018
C     -0.5316633125     1.8462463146     2.2471358843
C     -0.0722167833     0.6785488342     2.9221743109
C     -0.0661844875     2.9724580475     0.1185990394
C     0.3676799361     2.5528279136     1.4554753945
C     0.9727144039     1.986827791     -1.9323037269
C     1.0449840458     2.8387522162     -0.742402933
C     2.2259817079     -0.149998276     -2.1701948648
C     2.1747285848     1.2733772835     -1.9622452653
C     3.2047156417     -0.6207792992     -1.2195362647
C     1.8742785617     -2.572799483     -0.785629807
C     1.171831878     -2.8688940701     0.4917075461
C     2.9778707522     -1.7651071471     -0.4810049231
C     0.9275429834     -1.3383892021     2.3730779504
C     1.1815309471     0.1070111584     2.6303525333
C     1.7916689924     -2.0556671545     1.5240971969
C     2.9114998892     -1.3852004469     0.9630948244
C     1.765447512     2.1154799278     1.3318753604
C     2.2161043428     2.51759486     0.0257191719
C     2.9954464574     1.645769888     -0.769773102
C     3.4877795377     0.4761838435     -0.251522245
C     2.1747891268     0.8246258122     1.865398587
C     3.1064076726     0.0198910171     1.0764826688


