46

 C     -4.0589960097     0.6555269371     0.4387933745
C     -4.2006333479     -0.5313452941     -0.2418125078
C     -3.7209714161     -0.3635454076     -1.5995941273
C     -3.3435832661     1.6221259518     -0.4457026155
C     -3.1230575338     1.0038692117     -1.6938172772
C     -2.2348152147     2.1167093049     0.2842724638
C     -3.2179118305     0.4509164681     1.6106535167
C     -2.1723131606     1.3833455206     1.5879557272
C     -3.3624456039     -1.5529258958     0.4567112606
C     -2.8455281892     -0.9711229122     1.6716072122
C     -2.644577589     -1.2302530317     -1.7265168981
C     -2.4383447819     -2.0396575863     -0.4928421817
C     -1.7723285483     0.894923837     -2.1614451017
C     -1.4735952242     -0.5311221672     -2.2480557957
C     -1.0019203728     2.3723159649     -0.3595201529
C     -0.7234096835     1.7052097219     -1.6336988689
C     0.1225760224     2.5939085799     0.5046711808
C     -0.8710027718     1.0714847935     2.1738944381
C     0.2310431037     1.8610009301     1.7713380419
C     -1.5429444012     -1.2983282799     2.0487013541
C     -0.5835528931     -0.2859346813     2.507743958
C     -1.1010162541     -2.3607038438     -0.1247050083
C     -0.7468259886     -2.1893765603     1.2401399307
C     -0.1825807097     -1.0257395619     -2.0670928709
C     -0.0039413514     -2.1374095818     -1.1049397087
C     0.6507664769     1.3105613188     -1.9414899976
C     0.9281058811     -0.0841776767     -2.2585233809
C     1.3912849591     2.6620891924     -0.0353784448
C     1.7109735963     2.0512401971     -1.2937419375
C     1.6106756415     1.452310234     1.9597605272
C     2.3649619155     2.1308506374     0.9472543551
C     0.763302906     -0.7927701578     2.3807057445
C     0.6427858683     -2.0162255913     1.620877197
C     1.9189497916     0.0570575867     2.2018646253
C     1.2917912193     -2.4136076481     -0.6970335706
C     1.6480792894     -2.394765296     0.7492532433
C     2.2557758487     -0.5986494394     -2.1014820145
C     2.4115707812     -1.811554614     -1.377572069
C     3.0480504632     1.540561373     -1.1947281543
C     3.4309948349     1.5668025026     0.2766659502
C     3.3513839423     0.2680211177     -1.6348658023
C     3.086903152     -0.5181757592     1.5453930056
C     2.9306150214     -1.7871247544     0.8708390252
C     3.5229522585     -1.6769004122     -0.4488046012
C     3.9109619603     0.2864907744     0.6349432986
C     4.1417892088     -0.4459040026     -0.6006773431


