46

 C     -3.9474065855     -0.3648725609     -1.1035278723
C     -4.0451496438     -1.0452878784     0.1290549886
C     -3.9364535228     -0.1176634464     1.1888491778
C     -3.6485311379     1.047458381     -0.811683322
C     -3.6429776837     1.2003239765     0.6017805728
C     -2.4624231936     1.401831472     -1.5497733823
C     -2.7909221534     -0.8810355374     -1.7840199515
C     -1.9337628245     0.1739104201     -2.1906335166
C     -2.8994836408     -1.986919119     0.2255988449
C     -2.1890071907     -1.9746820856     -1.0099629145
C     -2.7749917971     -0.4785214867     1.9534111978
C     -2.1783072609     -1.7124643536     1.4244623945
C     -2.4506423917     1.7022456527     1.237103801
C     -1.9150760512     0.6385413551     2.119542037
C     -1.503999632     2.2241522426     -0.9640101974
C     -1.4979519871     2.380252158     0.4814505218
C     -0.1153890493     2.1726791558     -1.3871746204
C     -0.5283722847     -0.0417831336     -2.3450991278
C     0.3723290554     1.1055198953     -2.2084996442
C     -0.785905649     -2.1282166911     -1.0141532485
C     0.0095778295     -1.3520783157     -1.9840683723
C     -0.7753627985     -1.8624800294     1.4489359884
C     -0.1304223195     -2.3999356921     0.2582790897
C     -0.5088210912     0.4596622823     2.3044659538
C     0.0279851967     -0.8979690644     2.2249970417
C     -0.1060174948     2.4190649346     0.8944246237
C     0.7036807826     2.6023798233     -0.2829741502
C     0.3896234045     1.5512228476     1.9197466951
C     2.0938525312     2.3392069063     -0.2595264816
C     1.800191975     0.8741987775     -2.2178133108
C     2.6854483381     1.617533052     -1.3346300576
C     1.42202985     -1.5078758891     -1.9743019293
C     2.3126866768     -0.4328854022     -2.2786849732
C     1.2878631166     -2.5077121424     0.2632074823
C     2.0469835364     -2.2277366839     -0.9039886764
C     1.4399551796     -1.0526895157     2.2368584301
C     2.057695961     -1.9835549916     1.3377854384
C     1.8180811781     1.3267959014     1.9667047528
C     2.6947271402     1.8648599397     0.939266962
C     2.3320654764     0.0613999018     2.2994174401
C     3.7500376729     0.7611555971     -0.8211567185
C     3.5148086396     -0.5177583096     -1.3758049198
C     3.3594586302     -1.6514821042     -0.5523227339
C     3.3654541456     -1.4994000742     0.8629838005
C     3.7559625885     0.91536245     0.6100501232
C     3.5268794789     -0.2147496157     1.4254347634


