46

 C     3.2935802653     1.1779672726     0.241458311
C     2.9201689139     1.2834316695     -1.0981967204
C     2.8478175534     -0.0595948119     -1.6968814471
C     3.458974931     -0.2510481748     0.5227458226
C     3.1584637941     -1.0183779754     -0.6821078059
C     2.77218194     -0.5323234951     1.6958160184
C     2.4431392     1.7486863079     1.2786857174
C     2.136624248     0.6870021877     2.200276558
C     1.3924673621     2.5811363297     0.9148158192
C     1.7697956323     2.0252523206     -1.4983849665
C     1.1375510058     2.839053188     -0.5300267317
C     1.6453579649     -0.1256466389     -2.4443997452
C     0.9408391095     1.1618266014     -2.3426839051
C     0.8980538424     -1.3207047345     -2.4230888531
C     2.3308194832     -2.1589811777     -0.5678788272
C     1.3373818886     -2.3619428978     -1.5562226928
C     1.8278693893     -1.6188209946     1.7983364803
C     1.6737818357     -2.496609415     0.727939982
C     0.8182771526     0.3903249577     2.5958485232
C     0.6407939063     -1.0678360879     2.4836801899
C     0.0870864336     2.4677324053     1.562792475
C     -0.2834422485     1.287331741     2.3019471213
C     -0.2239933318     3.0888156676     -0.6881565109
C     -0.8655669381     3.0334632787     0.6528651919
C     -0.4790416815     1.2254199641     -2.3114148584
C     -1.0422898759     2.3576107813     -1.5902903976
C     -0.5643875322     -1.2838273254     -2.3717109351
C     -1.2757848506     -0.0583160685     -2.353770532
C     0.1563400556     -2.9871822159     -0.9679022611
C     0.3422135606     -3.025325044     0.4459684202
C     -1.0022992342     -2.4285569334     -1.5416869253
C     -0.6046486318     -1.5938766067     2.2703911555
C     -0.7570395133     -2.6807262888     1.2769242248
C     -1.6495590931     0.7178413181     2.1528096745
C     -1.7915945901     -0.7278012545     2.2140136713
C     -2.1305215106     2.5440097587     0.5247358285
C     -2.320992483     2.2221609793     -0.9282138121
C     -2.59388897     1.4162181643     1.2940618444
C     -2.5988787316     -0.0879721455     -1.7224716292
C     -3.0651195164     1.0872470413     -1.0043592108
C     -3.4270376806     0.6724991606     0.3857501708
C     -2.1636700922     -2.3184137678     -0.7376471495
C     -2.0207150859     -2.5023962011     0.6935349941
C     -2.7188401468     -1.4054452717     1.3720951938
C     -3.0034280017     -1.2012729188     -0.945403321
C     -3.4468387285     -0.7020296494     0.3954088499


