46

 C     -4.0229450934     -0.2168188006     0.1688742966
C     -3.6579795552     0.8286523527     0.9704591585
C     -3.0088828656     1.8546987597     0.1835813666
C     -3.5472817962     0.0773463543     -1.20312314
C     -2.8342028792     1.3424898511     -1.1850274027
C     -2.8300973427     -1.0361071814     -1.6021389262
C     -3.3294516167     -1.4239946932     0.6536422379
C     -2.7596823571     -2.0168015166     -0.4581414524
C     -2.6827877204     0.3680960506     1.9874491417
C     -2.4394162341     -1.0387358794     1.7614024796
C     -1.88538057     2.2793253442     0.9173562548
C     -1.6180912407     1.2779937913     2.0075724776
C     -0.801474619     2.7531621126     0.2156515121
C     -1.5394637822     1.4607544837     -1.7856796243
C     -0.6792130034     2.4430291217     -1.1882251616
C     -1.5238112528     -0.9767938774     -2.1746819355
C     -0.8328785462     0.2582018136     -2.3442984069
C     -1.4511316772     -2.5362772186     -0.4287070893
C     -0.777549933     -2.1250915027     -1.6575569004
C     -1.1013796143     -1.5086626255     1.8071907463
C     -0.6730406548     -2.49695539     0.7830209907
C     -0.2702660498     0.8457739373     2.2241326438
C     -0.0497453202     -0.5897833422     2.2889758989
C     0.5406280119     2.7350353144     0.7977785266
C     0.8350249658     1.7569421957     1.8117421332
C     0.7100313348     2.4862694487     -1.4569389228
C     1.4441827676     2.9246839762     -0.2892343817
C     0.654408107     0.2087370495     -2.4126147897
C     1.4139266445     1.4132368245     -2.0991454227
C     0.5934224291     -2.1808577202     -1.7424977347
C     1.3518136704     -1.0203366634     -2.1909036918
C     0.7063964229     -2.7917021253     0.6120668953
C     1.3097750015     -2.8040471671     -0.6791352178
C     1.3163361139     -1.0481439493     2.242909801
C     1.6874591503     -2.2113761217     1.497980041
C     2.1915005925     1.2501541574     1.8381494124
C     2.3903704823     -0.119611595     2.1179557786
C     2.6913548483     2.264650102     -0.3213010283
C     2.7021075712     1.3383601724     -1.499643396
C     3.1335836508     1.5624993373     0.7681250801
C     2.6605971834     -1.0887033017     -1.5141274891
C     2.6157386164     -2.1815521124     -0.5794257288
C     2.9335922767     -1.9905005523     0.7952515862
C     3.410248931     -0.7121104205     1.1985090263
C     3.3084667715     0.1173154184     -1.1183182752
C     3.7151861803     0.2675547873     0.2810866322


