46

 C     3.0877970437     -0.8893665747     -1.3651220159
C     3.3613256007     -0.4922000553     -0.0333274501
C     3.119533472     0.9219433475     0.0925344906
C     2.5264747989     0.1916700472     -2.0941286305
C     2.5764451768     1.3576698481     -1.219244768
C     1.2693002362     -0.2662279018     -2.5802895968
C     2.2159460704     -2.030686615     -1.3808343674
C     1.0881505646     -1.6895501431     -2.1728736223
C     2.7309980599     -1.4593225633     0.8518948917
C     2.0251724199     -2.4493120456     -0.0167957081
C     2.119143065     -0.9728351814     2.0034224
C     2.5195656728     1.3860397286     1.2760913809
C     2.1454603115     0.4331912817     2.2781671233
C     1.4717397447     2.4226268976     1.2236782459
C     1.5415854185     2.2658641604     -1.2559616706
C     1.0776359291     2.9255013133     -0.0244279881
C     0.142504329     0.6218782665     -2.613959926
C     0.3406985005     1.9794108515     -2.069852688
C     -1.1507905177     0.0469346003     -2.5262935846
C     -0.2067055674     -2.1885810826     -1.8469477475
C     -1.3416254537     -1.3740992953     -2.2249085458
C     0.7834088487     -2.9259578703     0.3566323281
C     -0.3142480942     -2.9753396192     -0.6161219966
C     0.7655720565     -1.4613742495     2.3690933266
C     0.1863704373     -2.5047704765     1.6407611237
C     0.8407585273     0.7975909151     2.7501992198
C     0.4323900886     2.0504810999     2.1852732532
C     -0.0283531803     -0.3306568891     2.810016499
C     -0.932641794     2.2218689016     1.8904242322
C     -0.295654123     3.2572351291     -0.2300783589
C     -0.7374609647     2.6821929216     -1.5208997439
C     -1.272125083     2.96750681     0.7130937546
C     -2.2706756645     0.8111397707     -1.9230863579
C     -2.0257487843     2.0911737929     -1.3436773032
C     -2.3769132835     2.2807630228     0.0379751115
C     -2.5536611333     -1.4680723829     -1.48903928
C     -3.0639088987     -0.1013688785     -1.2272238988
C     -1.5331064405     -2.9479623383     0.1208371104
C     -1.2174877213     -2.5010380738     1.4692596014
C     -2.6416061271     -2.2091906176     -0.3131822446
C     -1.4220153537     -0.1923836956     2.4159020143
C     -1.867293132     1.0897329223     1.9838338865
C     -2.8015392345     1.2026507128     0.8470025755
C     -3.2833306633     0.0315397186     0.1932966262
C     -2.0447241896     -1.3699557956     1.8159198335
C     -2.9863609686     -1.2363527151     0.7629654652


