46

 C     -3.1626454387     -1.8218473594     1.0354004105
C     -3.6449272794     -0.4568025414     0.954110694
C     -3.8470437195     -0.1438602599     -0.4077037318
C     -2.7576070868     -2.2133630261     -0.3267678712
C     -3.1278352234     -1.2115129053     -1.1957460383
C     -1.3621542806     -2.6002611308     -0.3161218461
C     -1.9697415832     -1.7990458031     1.7526869324
C     -0.9069083708     -2.4653727277     1.0361172883
C     -2.751334816     0.3997085258     1.7401319123
C     -1.67225845     -0.4442038639     2.235881926
C     -2.4179720509     1.6841788814     1.2476325732
C     -3.413339306     1.0881354001     -0.9089150037
C     -2.8611115412     2.0688734827     -0.0638585641
C     -2.1372744325     -0.5483037136     -2.0471640984
C     -2.3922382091     0.8288141945     -1.9385119492
C     -0.4479359987     -2.1932373263     -1.3463314299
C     -0.7640658584     -1.0095085488     -2.1346039927
C     0.9069951718     -2.465411663     -1.0359669896
C     0.4480170781     -2.193130861     1.3464654599
C     1.3622479186     -2.6001970711     0.3162897487
C     -0.3198064071     -0.0234126804     2.3626923995
C     0.7641037253     -1.0093428251     2.1346684556
C     -1.0477538262     2.1742706118     1.4379777714
C     -0.0395215952     1.4012624064     2.0889597085
C     -1.6679200495     2.6077247811     -0.7303320829
C     -1.3233750485     1.8006986279     -1.8426365897
C     -0.6630536848     2.8763469515     0.2249317385
C     0.3198088041     -0.0235511571     -2.3626929471
C     0.0394703643     1.401131341     -2.0890504969
C     1.9698034289     -1.7990850828     -1.7525741612
C     1.6722746949     -0.4442887804     -2.2358563916
C     2.7576792426     -2.2132336401     0.3269091995
C     3.1627076781     -1.8217947575     -1.0352808329
C     2.1372941765     -0.5480976139     2.0472043018
C     3.1278820333     -1.2113236508     1.1958307095
C     1.3233118046     1.8008642734     1.8425279692
C     2.3922082509     0.8290268342     1.9384593668
C     0.6629504125     2.8763613238     -0.2251164136
C     1.0476744873     2.1742151247     -1.4381163659
C     1.6678227954     2.6078206562     0.7301606232
C     2.7513239038     0.3996966837     -1.7401579083
C     3.6449486747     -0.4567314284     -0.954082291
C     3.8470436887     -0.1436965802     0.4077155995
C     3.4133018485     1.0883171773     0.9088490266
C     2.4179134496     1.6841840637     -1.2477418554
C     2.8610396239     2.0689806566     0.0637240368


