46

 C     3.3714239745     -0.5111487385     -1.020711591
C     3.0419641338     0.8287240676     -1.3496915057
C     2.8956651657     1.5425131714     -0.1013116593
C     3.3769090758     -0.7117136569     0.3920333232
C     3.0906072197     0.5704223355     0.9996137869
C     2.5652740818     -1.8667751869     0.6659354103
C     2.4749393315     -1.4244476506     -1.656771121
C     2.0228181301     -2.3364224006     -0.6483650471
C     1.9403294608     0.7624579067     -2.2795639503
C     1.5416790178     -0.6595039758     -2.4332620557
C     0.9452366639     1.7275176426     -2.2007757352
C     1.8771624133     2.4981649246     -0.0083500669
C     1.0299631631     2.6928922458     -1.1391831124
C     0.9884688673     2.5588349488     1.1746668946
C     2.203773062     0.5944908817     2.0853963446
C     1.1315609655     1.6115465404     2.1696112752
C     1.7121017899     -1.8445301389     1.7757058374
C     1.6430561515     -0.639980876     2.5510918421
C     0.3424309425     -2.3832894371     1.6962261352
C     0.7198384859     -2.7774016374     -0.727214507
C     -0.098422798     -2.956984385     0.496844652
C     0.165326689     -1.0198576526     -2.4628303319
C     -0.1700501896     -2.2412265785     -1.7539614483
C     -0.4772161331     1.3900586265     -2.3750643647
C     -0.8944054156     0.0408441244     -2.5491135278
C     -0.3078375105     2.9897786069     -0.7119748914
C     -0.36420351     2.9135469751     0.7135666391
C     -1.2520268383     2.3181926075     -1.5479760062
C     -1.5128505314     2.3360929375     1.2988933249
C     -0.070560284     0.9447496035     2.7277259303
C     0.2697996599     -0.4320970864     2.8971280105
C     -0.5613145876     -1.4895273376     2.4043303162
C     -1.349656549     1.2534130193     2.2931590073
C     -1.8944262815     -1.1889100153     1.9332782341
C     -2.3170794105     0.1991693774     1.9953987804
C     -1.4522268198     -2.8155677356     0.1366083794
C     -1.5006285093     -2.4636866608     -1.3088193707
C     -2.3824652404     -1.9936520369     0.8172664217
C     -2.253305973     -0.2788714705     -2.119167119
C     -2.5340586386     -1.5874899899     -1.528190776
C     -3.1903410242     -1.3778286705     -0.232867676
C     -2.4634802696     1.8980736402     -0.9651183899
C     -2.6047221665     1.9860946367     0.4789346854
C     -3.1536918085     0.7284281183     0.9568707312
C     -3.0131657613     0.6558516863     -1.3772677333
C     -3.532194195     -0.0409423067     -0.1627369752


