46

 C     3.8892353344     -0.8397651832     -0.2984088698
C     3.6367998073     0.2178183277     -1.2241393895
C     3.2708542638     1.4190394613     -0.5655245824
C     3.4658719814     -0.3191202937     0.9833742406
C     3.1876865759     1.1146442531     0.8579328264
C     2.4839042699     -1.1724775103     1.5742198539
C     2.942743359     -1.8637686363     -0.6152744436
C     2.2411103389     -2.2314550804     0.573834729
C     2.5655370571     -0.1387254942     -2.1222581442
C     2.1150966652     -1.438459722     -1.7436818054
C     2.1188150412     1.9882438681     -1.2422937784
C     1.6148235398     0.948622359     -2.1660114783
C     1.1996223734     2.6936612797     -0.4816781305
C     2.1182117863     1.6592842711     1.5683808634
C     1.3188984821     2.6795641125     0.9659723098
C     1.3457273216     -0.6259030369     2.2891180797
C     1.1953491241     0.7936073186     2.3524621984
C     0.1114834889     -1.3856293738     2.30434722
C     0.9627543841     -2.7548596014     0.4339011835
C     0.0001023365     -2.5607471759     1.464393861
C     0.7047162863     -1.7391365451     -1.789693535
C     0.2141775097     -2.6522152642     -0.8223714359
C     0.2326589867     0.7050397613     -2.2966913546
C     -0.2326700815     -0.7050357873     -2.2966903652
C     -0.2141812777     2.6522180868     -0.8223693998
C     -0.7047248175     1.7391407457     -1.7896910583
C     -0.0000948432     2.5607445151     1.4643946758
C     -0.1114725934     1.3856245806     2.3043475024
C     -0.9627516535     2.7548585669     0.433906127
C     -1.1953389057     -0.7936114796     2.3524671814
C     -1.3457166476     0.625898245     2.2891232388
C     -1.3188940539     -2.6795643656     0.9659755584
C     -1.1996246543     -2.6936600314     -0.4816747316
C     -2.1182050172     -1.6592872451     1.5683893776
C     -1.6148338295     -0.9486183292     -2.1660050006
C     -2.1188213588     -1.9882415269     -1.2422852453
C     -2.1151048295     1.4384639303     -1.7436734441
C     -2.5655463593     0.1387294264     -2.1222474704
C     -2.2411069173     2.2314526818     0.5738442239
C     -2.4838969839     1.1724737531     1.5742299864
C     -2.9427465755     1.8637706716     -0.6152614901
C     -3.1876831838     -1.1146463873     0.8579454146
C     -3.2708567414     -1.4190393606     -0.5655104584
C     -3.6368040434     -0.2178147271     -1.2241223435
C     -3.4658670849     0.3191185665     0.9833887182
C     -3.889237861     0.8397663753     -0.2983924151


