46

 C     3.6022864302     -0.8902229746     -0.8585113754
C     3.662552998     -0.3276856685     0.5094495404
C     3.5080206701     1.0596593776     0.393012002
C     3.0355470846     0.1558983629     -1.7123528254
C     3.0565810579     1.3550951314     -1.031293598
C     1.7771419112     -0.3160866276     -2.2898274405
C     2.6838665242     -1.9150644438     -0.8398600725
C     1.5913454215     -1.6283963169     -1.7961661459
C     2.7781713195     -1.0658760408     1.369412434
C     2.2725932106     -2.1684499286     0.5350475279
C     1.8291051512     -0.3681222257     2.233864128
C     2.6138915302     1.7330023469     1.2152371073
C     1.7640933096     1.0686974022     2.1498362005
C     1.8933632606     2.195240402     -0.9706118275
C     1.7590609584     2.6001648702     0.3862342169
C     0.6348073426     0.5791636247     -2.4455564289
C     0.6915861574     1.8982683677     -1.7562537321
C     -0.6189709033     -0.0311778665     -2.6181427125
C     0.2725044335     -2.1586956452     -1.5838247596
C     -0.8097475964     -1.4555929461     -2.23806636
C     1.014044837     -2.6957274214     0.7501438772
C     0.0097240153     -2.8250659067     -0.3539958051
C     0.580349081     -1.0323861455     2.5129433819
C     0.288280314     -2.263604375     1.8823318051
C     -0.7049304963     -0.326152079     2.6020760212
C     0.4555446478     1.7332768181     2.0675764164
C     0.5035699363     2.6995488887     0.9897022962
C     -0.7904914965     1.0704180858     2.3432683174
C     -0.5227869652     2.4380772538     -1.2820122003
C     -0.6245039629     2.8758767902     0.1441566586
C     -1.8707427621     0.6569285549     -2.335246872
C     -1.8177110903     1.8922122052     -1.6424748094
C     -2.1282573047     -1.6218496906     -1.8149452124
C     -2.8311602511     -0.3368781861     -1.9260130649
C     -1.3128927638     -2.7334904348     0.2266014946
C     -1.1373998534     -2.3439272514     1.5956350448
C     -1.781194375     -1.2179029192     2.1280819424
C     -2.398356116     -2.1800718919     -0.5061091851
C     -3.5966468139     -0.1644318839     -0.76521692
C     -2.9091512241     -0.6876292874     1.4319856826
C     -3.2690285258     -1.2643290382     0.158419749
C     -2.0111631598     1.596152162     1.7125816913
C     -1.8790867687     2.5563181597     0.6191272457
C     -2.6960506191     2.0767940534     -0.5049408029
C     -3.0663774167     0.7280088265     1.3534320431
C     -3.5013851373     1.0500145116     -0.038733674


