46

 C     -3.5793418779     0.0651131798     -0.9968542766
C     -3.5643319035     0.1015573341     0.474969462
C     -3.149218234     -1.1521016879     0.9234734281
C     -2.9509448797     -1.1682896939     -1.4232014993
C     -2.7459196743     -1.9418300155     -0.2812715755
C     -1.7825001899     -0.8418362456     -2.2285448774
C     -2.7888598532     1.1117596224     -1.4420062462
C     -1.711247803     0.6058636535     -2.2974650533
C     -2.8615118465     1.2836861607     0.9118456668
C     -2.4464586752     1.9894477393     -0.3239189812
C     -1.9189575225     1.1789599465     1.9514683062
C     -2.0984723141     -1.2845933809     1.872952647
C     -1.5384853538     -0.1268512792     2.4672922801
C     -1.5060372102     -2.582874715     -0.0181104537
C     -1.1809818402     -2.3103559129     1.3766177244
C     -0.5849821799     -1.6087081098     -2.1334808415
C     -0.456398227     -2.5937327274     -1.0121203957
C     0.6094081104     -0.9337165414     -2.5629154315
C     -0.4711839923     1.2884864569     -2.3368908813
C     0.6891532677     0.5036084418     -2.6075614492
C     -1.2639919566     2.6825739126     -0.3673196723
C     -0.3018021464     2.4692073569     -1.4751138971
C     -0.7216244552     2.0280098539     1.9519972108
C     -0.4724768057     2.8735672015     0.8565508894
C     -0.1131178118     -0.0741103629     2.7725184922
C     0.3857247429     1.2760498477     2.5241899265
C     0.1523858967     -2.316761517     1.7921228329
C     0.7201958783     -1.1652556748     2.5197744181
C     0.8518921916     -2.8942701407     -0.5219158383
C     1.1177685876     -2.7821308922     0.8789321665
C     1.9067400943     -1.4044894532     -2.143908294
C     2.0324489619     -2.3531305653     -1.168880207
C     2.0325893004     0.913803202     -2.1183148345
C     2.7643307604     -0.2402706674     -1.8183966018
C     0.964318343     2.8185117792     -1.0111038153
C     0.8727760449     3.0937551059     0.4462600399
C     2.1472899648     2.0440978757     -1.2569767436
C     1.7108918639     1.4712263626     2.0760244532
C     1.9368945373     2.4563324024     1.0551820843
C     2.7897389945     1.8548627635     0.0124938051
C     2.0844543916     -0.9650967625     2.0393164147
C     2.3601147435     -2.0228704911     1.0839908987
C     2.9628999763     -1.7939736896     -0.1342275817
C     3.3364289819     -0.4602061209     -0.5171604621
C     2.5543939832     0.3213811705     1.7554282531
C     3.2260041359     0.5855962777     0.4542595101


