46

 C     -3.7086035371     -0.0256764149     -0.7311378883
C     -3.5302717663     -0.5945768388     0.6123108711
C     -2.9149230698     -1.8318157107     0.4669573543
C     -2.9280454845     -0.833708178     -1.6669032995
C     -2.5310662062     -1.9810547893     -0.9771034909
C     -1.9234062807     -0.0055534088     -2.2927775791
C     -3.1779311642     1.2497475751     -0.7285031455
C     -2.1662015609     1.3438930989     -1.7912360521
C     -2.9209968053     0.4093593073     1.4629217972
C     -2.787417487     1.6167276366     0.6468866072
C     -1.8365989793     0.0356545675     2.2894870622
C     -1.7784034338     -2.1969603775     1.2369704347
C     -1.2792334504     -1.2996551089     2.223257907
C     -1.2110892318     -2.4539458032     -1.0496065505
C     -0.8032026382     -2.7847565772     0.3352221616
C     -0.5754007072     -0.4717501248     -2.4380916784
C     -0.2533455987     -1.80933206     -1.906159859
C     0.5224320034     0.5348700794     -2.4721068745
C     -1.1177958753     2.2250278248     -1.6072562554
C     0.2374781887     1.8595054131     -2.026947321
C     -1.7002140175     2.4645830277     0.8063896561
C     -1.0108383625     2.9434552279     -0.3623437583
C     -0.7112622846     0.9565169342     2.4885852872
C     -0.6630106642     2.1713402155     1.8108152757
C     0.1594341459     -1.2289983741     2.4709499215
C     0.51570174     0.169727626     2.6857359978
C     0.5362297698     -2.8479449168     0.6846785573
C     1.0586014894     -2.0715290415     1.8180198597
C     1.1256484547     -2.143567613     -1.6487965161
C     1.4926706465     -2.7550051038     -0.3542123097
C     1.9001632968     0.0896780264     -2.3109578433
C     2.1746318487     -1.2994634454     -2.003995541
C     2.8471045931     0.8733525652     -1.594667477
C     1.1714325464     2.5723068023     -1.1576755342
C     0.3791628107     3.063330498     -0.0707989692
C     0.6205936637     2.6172283549     1.277017233
C     2.4234404232     2.010322242     -0.8666782401
C     1.7596991939     0.6430384065     2.290913223
C     1.8123147527     1.9253583904     1.5634340857
C     2.776895474     1.7764105565     0.5345503917
C     2.395363322     -1.6049118756     1.4370009422
C     2.6980770034     -2.1696912964     0.1316618403
C     3.18394082     -1.3390341576     -0.9178917118
C     3.5650864768     -0.0346794499     -0.6536928224
C     2.7550792766     -0.2596547339     1.6986688725
C     3.4180766651     0.491826024     0.6571073782


