46

 C     -3.7620701722     -0.4465600643     -0.6978711546
C     -3.4714199603     0.9358222125     -0.6423540065
C     -3.2184581495     1.2713638916     0.7163514474
C     -3.5648957801     -1.0406187698     0.6418815462
C     -3.2138074905     0.029093094     1.5211419839
C     -2.7064172007     -2.1243151212     0.4843479432
C     -2.8877893873     -1.0775163715     -1.6243158175
C     -2.3267778022     -2.2078881401     -0.9664680633
C     -2.4508338165     1.2254964071     -1.650449343
C     -2.0232470539     -0.0757432728     -2.2252740711
C     -1.5002031917     2.1759565805     -1.3591588631
C     -2.1044265942     2.0592094741     1.0686591795
C     -1.3848528549     2.7167829518     0.0254765591
C     -1.9972094609     0.0105992385     2.2293062147
C     -1.3475727164     1.342233008     2.0791449949
C     -1.5000614301     -2.2132999389     1.2335363179
C     -1.1476190898     -1.1721364574     2.1976310016
C     -0.9652374343     -2.4269188151     -1.0375384372
C     -0.4557960217     -2.646714898     0.3320003818
C     -0.6492179157     -0.3462245432     -2.431177282
C     -0.1295245342     -1.6549475091     -1.941616932
C     -0.1457864025     2.0392706895     -1.8834714694
C     0.3049158861     0.7904388993     -2.4458662597
C     -0.0382866772     2.987041809     0.2263359791
C     0.7184052787     2.7456688414     -1.0076209382
C     0.0533256939     1.4980849483     2.2007671514
C     0.7269938365     2.4326643276     1.3034756734
C     0.2269826847     -1.0002636144     2.4596860718
C     0.8199867969     0.3415064041     2.6216479556
C     0.9089298382     -2.5297859526     0.6374124123
C     1.2431809456     -1.8497241751     1.8727714782
C     1.242571215     -1.8347329545     -1.7691744991
C     1.813247252     -2.4074450222     -0.4958331232
C     1.7029851601     0.5302864827     -2.3561620245
C     2.1716355492     -0.8523479254     -2.2405386986
C     2.0070558844     2.2995053076     -0.6828630801
C     2.0571614917     2.1601765954     0.8029358818
C     2.5825017646     1.3158487181     -1.5090720519
C     2.1831927121     0.2480378669     2.3311373761
C     2.4777281782     -1.136636106     1.9359520977
C     2.8160041762     1.1179679428     1.3673197768
C     3.0911709213     -1.8538048109     -0.3350332547
C     3.3244635697     -0.9136095528     -1.4503410187
C     3.5344610153     0.3912227464     -0.9062453264
C     3.374352283     -1.1350196449     0.870543682
C     3.6102610034     0.2819772228     0.4989806083


