46

 C     3.7799690046     -0.1804024233     0.7562336081
C     3.1211949403     -1.436379794     0.8418953296
C     2.7990535067     -1.8528233224     -0.4695847804
C     3.6946690344     0.2710333122     -0.6615202011
C     3.117082552     -0.7673323089     -1.4229563842
C     3.0811814673     1.5241411211     -0.6841491001
C     3.0526850645     0.7357469385     1.5468723702
C     2.717411966     1.8604871424     0.7404039254
C     2.0116589913     -1.3398421255     1.7881266745
C     1.9559191617     0.0465826004     2.222319023
C     0.8187960405     -2.0784732793     1.581461346
C     1.5404374882     -2.4145720523     -0.7840622233
C     0.5960442613     -2.7476154014     0.2579180421
C     1.9380500014     -0.5569820567     -2.1911254867
C     1.080309619     -1.7311276773     -1.9839810295
C     1.9197584009     1.765823985     -1.4602438514
C     1.2918093243     0.7335532579     -2.2599685239
C     1.4632053609     2.4437622869     0.7728056758
C     1.0506166434     2.6150605239     -0.6475583728
C     0.6997359991     0.6980880566     2.3963771504
C     0.4469164891     2.0064062028     1.7241808647
C     -0.3374495228     -1.5511870935     2.2375982576
C     -0.4192861906     -0.159133807     2.5891351933
C     -1.6670437911     -1.9591970238     1.8456259575
C     -0.7431602469     -2.9577992553     -0.1737741602
C     -1.8824843326     -2.6751952087     0.6943096539
C     -0.2727814058     -1.6748959698     -2.2540919594
C     -1.1350847988     -2.4683558734     -1.4574542711
C     -0.1874779957     0.8071439012     -2.448292096
C     -0.9478884361     -0.3997605163     -2.5368248263
C     -0.2532433301     2.8241238775     -0.9602843634
C     -0.9114290216     1.9582975155     -1.9562139004
C     -0.8781412402     2.3900657583     1.439055773
C     -1.1840848685     3.0257415372     0.1412705975
C     -1.8077034855     0.296364337     2.3544750176
C     -2.5798971143     -0.8067203915     1.9188583464
C     -2.0326310273     1.5661088343     1.7891519183
C     -2.9146986429     -1.9360709725     -0.0683692472
C     -2.4209253283     -1.7881853141     -1.3546537889
C     -2.3048870248     -0.5033736974     -2.0151806161
C     -3.3064873261     -0.7603153636     0.6870795742
C     -2.2718570729     1.8621412841     -1.5453555946
C     -2.4196634555     2.5728253052     -0.2768094287
C     -2.9677078819     1.6527685987     0.6905933108
C     -2.9218095713     0.6047356294     -1.4118345266
C     -3.4086822051     0.4847369218     0.0085411217


