46

 C     3.8562267071     -0.3325986654     -0.5076562349
C     3.5152679159     1.0195608597     -0.4470429063
C     3.1220576     1.3084651413     0.9080967707
C     3.5634484057     -0.9484843966     0.8250469058
C     3.073221526     0.0743998214     1.6845634182
C     2.7702362833     -2.0549129588     0.6040189396
C     3.0209234411     -0.9770213754     -1.4824630122
C     2.4808785953     -2.1394922217     -0.8860061814
C     2.5161948781     1.2738108936     -1.5059604553
C     2.1200209854     -0.0101323447     -2.0848527552
C     1.5498086195     2.2171920291     -1.2859781274
C     1.9817265573     2.0851998287     1.1809033064
C     1.3800478166     2.782189923     0.0940514765
C     1.7573569539     0.0072442267     2.2476885736
C     1.1095603079     1.3172342885     2.0583654908
C     1.5138413287     -2.2025005439     1.2560326059
C     0.9383664182     -1.1612217697     2.0918568009
C     1.1609871871     -2.4828885877     -1.0677797793
C     0.6429792024     -2.8176900412     0.284375319
C     0.7296808895     -0.3149902062     -2.2831400949
C     0.2733584572     -1.6704543143     -1.9103197333
C     0.216946049     2.0602397616     -1.8360254376
C     -0.2696356999     0.7762857383     -2.2572992317
C     0.0692671453     3.1699277658     0.2291521393
C     -0.6337808207     2.9260410204     -1.0642223193
C     -0.2990982045     1.4832225606     2.0389419268
C     -0.7830052172     2.6183322969     1.2485021365
C     -0.539634644     -1.0376481545     2.1460181792
C     -1.1739964049     0.294377478     2.2062548323
C     -0.6870017115     -2.8987817397     0.5079742932
C     -1.303429537     -2.1178095811     1.5767248386
C     -1.0967053326     -1.9131140678     -1.7502031643
C     -1.5615499558     -2.826419517     -0.6594168239
C     -1.7241296444     0.486217399     -2.0724280018
C     -2.1143886331     -0.8952645131     -1.9162321724
C     -1.9354088177     2.632093123     -0.8176567413
C     -2.0918020646     2.5798600201     0.6762029243
C     -2.5578316715     1.4624578679     -1.3831646236
C     -2.5538426502     0.409394935     1.7828686456
C     -2.9333215602     1.5403897458     0.9449540641
C     -3.4353191376     1.0003200686     -0.3392066166
C     -2.667450149     -1.9571884917     1.1548186641
C     -2.8055033366     -2.4416207378     -0.2467241248
C     -3.2088320374     -1.2778321207     -1.0391089607
C     -3.2579091433     -0.711841516     1.2439352539
C     -3.7288268967     -0.3345519279     -0.1484600071


