46

 C     3.7651915944     0.8229610439     -0.3234293426
C     3.5496762758     0.0034030809     0.8779975632
C     3.3895299106     -1.323929759     0.4806121367
C     3.2575013023     0.0120767209     -1.4395651063
C     3.1316877672     -1.3017672461     -1.0053580556
C     2.1119574655     0.6734457187     -2.0457004649
C     2.903553166     1.8957010473     -0.2179887451
C     2.0087660273     1.9540226976     -1.3840465618
C     2.5411008318     0.6234461997     1.7251184915
C     2.2629343876     1.9059701616     1.114990567
C     1.4380803073     -0.1456687643     2.2690035698
C     2.3790018702     -2.0923448019     1.0564491749
C     1.4221948974     -1.5560465071     1.9834828652
C     1.9461580435     -2.0433884027     -1.2687148748
C     1.5962981043     -2.6720525185     -0.0201070832
C     0.9069666312     -0.050198689     -2.3754560783
C     0.8569128508     -1.471828178     -2.0245952038
C     -0.3733940669     0.711178666     -2.4059339657
C     0.7843614035     2.5815751548     -1.2200407399
C     -0.4188695707     2.0153123708     -1.8305052293
C     1.021779891     2.5070985915     1.2269168019
C     0.415470289     3.0851855467     0.0678961158
C     0.1167720464     0.5209684799     2.4538262018
C     -0.0539600908     1.8585696423     1.9986988633
C     -1.0960048672     -0.2968639333     2.5211730101
C     0.1429086722     -2.2446567233     1.7164812463
C     0.2755205331     -2.9138595843     0.4109790021
C     -1.063289409     -1.696822971     2.045270505
C     -0.4395605739     -2.0825326174     -1.7959360379
C     -0.7433363047     -2.7906955715     -0.5199228031
C     -1.6330152068     -0.02259486     -2.4214100713
C     -1.61143567     -1.4434830967     -2.1616274844
C     -2.8018286627     0.4795544129     -1.7912226963
C     -1.5658149958     2.4336399872     -1.0240294673
C     -1.010341658     2.9254464723     0.1909609656
C     -1.3249574077     2.297336666     1.4374939847
C     -2.7250170216     1.6255514044     -0.9543486162
C     -2.353391403     0.2102036988     2.1817599446
C     -2.4764212228     1.4827219477     1.519330972
C     -3.2499597376     1.2599469787     0.3422221474
C     -2.2608907376     -1.9359951707     1.2169036899
C     -2.0920640146     -2.4667284217     -0.0993808639
C     -2.6940079256     -1.7703106332     -1.2010159719
C     -3.4423049589     -0.6203440022     -1.011501423
C     -3.1052106655     -0.8007270793     1.4002315248
C     -3.6892460971     -0.1424771596     0.304035543


