46

 C     3.7285862013     -0.3178997248     -0.689570348
C     3.7284992838     -0.3178506743     0.6900637753
C     2.9443109593     -1.4458085918     1.1737374482
C     2.9444593554     -1.4458919822     -1.1732632911
C     2.4763450196     -2.1881989016     0.0002339171
C     1.9906899877     -0.9165149309     -2.0474969086
C     3.187784527     0.930494953     -1.1850170917
C     2.1372176421     0.5918312724     -2.0513763563
C     3.1876351627     0.9305790775     1.1853536718
C     2.8846236761     1.7561608659     0.0001196105
C     1.9904313418     -0.916369607     2.0478130922
C     2.1369587702     0.5919769716     2.0516040985
C     0.6781827504     -1.4937016085     2.1474641651
C     1.1737342008     -2.6567503906     0.0001684842
C     0.3100182718     -2.4733453111     1.1629717647
C     0.6784538237     -1.4938538955     -2.1472720644
C     0.3101649045     -2.4734275368     -1.16275669
C     -0.3715982688     -0.6668374801     -2.6782976606
C     0.9590173838     1.415279191     -2.1462845946
C     -0.2440499079     0.8267245026     -2.6056338134
C     1.7296483875     2.4962352066     0.0000204705
C     0.8455132011     2.5040280653     -1.1800035053
C     0.9587464649     1.4154317654     2.14630555
C     0.8453642183     2.5041121444     1.1799326427
C     -0.371936313     -0.6666472739     2.678298303
C     -0.2443786531     0.8269095527     2.6055444839
C     -1.703810602     -1.0035940019     2.456439348
C     -1.0650378169     -2.6168150789     0.7384315819
C     -1.0649447069     -2.6168677185     -0.7383804191
C     -2.08514447     -1.9644862808     1.4442964403
C     -1.7035005901     -1.003768626     -2.4565833563
C     -2.0849623784     -1.9645889793     -1.4444204734
C     -1.5383644724     1.3421107088     -2.2349225102
C     -2.456301954     0.234979637     -2.209225984
C     -0.4243379777     2.8974147556     -0.7398414509
C     -0.4244311665     2.8974669823     0.7395820351
C     -1.6238899496     2.2988345449     -1.1854168524
C     -1.5386466466     1.3422692777     2.2346330992
C     -2.456580903     0.2351364987     2.2088993638
C     -1.6240393716     2.2989178054     1.1850482925
C     -2.470479407     2.0236737733     -0.0002277735
C     -3.168968618     -1.3564008887     0.6906590135
C     -3.1688819249     -1.3564501934     -0.6909630014
C     -3.3322876504     0.0388767032     -1.1603694422
C     -3.3324337671     0.0389592341     1.1599456306
C     -3.3273780179     0.917665187     -0.000242695


