46

 C     -2.3440118956     -2.5855278849     -0.0710482639
C     -3.0964437391     -1.3620287414     -0.0940079488
C     -2.8070186781     -0.6970932023     -1.3299253163
C     -1.5083068812     -2.6656591517     -1.2125996328
C     -1.7052068052     -1.4474207312     -1.9742409759
C     -0.2009977338     -3.0472141627     -0.7550434059
C     -1.5791311517     -2.6655100413     1.1187792217
C     -0.2464092253     -3.0471477758     0.7414683305
C     -2.8825436526     -0.6969578964     1.1575967027
C     -1.8219687569     -1.447066232     1.8672732957
C     -2.8825876843     0.696859043     1.1575512369
C     -2.8070623154     0.6968330014     -1.329972507
C     -3.0965232044     1.3618315737     -0.0940987872
C     -1.7052936663     1.4471847032     -1.9743363434
C     -0.58245754     -0.75034723     -2.4995316187
C     -0.5825028677     0.7501448101     -2.4995817178
C     0.8958846839     -2.5103500142     -1.3915573271
C     0.6992116767     -1.4350932616     -2.3910307816
C     2.1277453174     -2.2180240901     -0.6529828923
C     0.8097585929     -2.5103667379     1.4433873234
C     2.0841532198     -2.2180512142     0.7809841249
C     -0.7331225396     -0.7502539501     2.4596782135
C     0.5527731132     -1.4349403695     2.4291128487
C     -1.8220555729     1.4470789173     1.8671760173
C     -0.7331681386     0.7503732031     2.4596282544
C     -2.3441668694     2.5853799118     -0.0712203555
C     -1.5084689928     2.6654882954     -1.2127788376
C     -1.5792929362     2.6654903503     1.1186028807
C     -0.2011827502     3.0471509206     -0.7552456478
C     -0.2465939727     3.0471813236     0.7412642633
C     0.6991251894     1.4349758584     -2.3911259947
C     0.8957332125     2.510311716     -1.3917245537
C     1.8934170732     -0.7030636071     -2.4124201281
C     2.7777370782     -1.1582941172     -1.3175953844
C     1.8933755872     0.7030182195     -2.4124683412
C     2.1276102113     2.2181107623     -0.6531306185
C     3.2542293519     0.0000787563     -0.6254149204
C     2.7776672889     1.1583746533     -1.3176730379
C     2.6924518247     -1.1581925961     1.4838057315
C     1.7433736419     -0.7029916863     2.5229359555
C     3.2102434457     0.0001258078     0.8218185252
C     0.552686841     1.4351356496     2.4290163641
C     0.8096072648     2.5105127931     1.4432197921
C     2.0840182191     2.2182305855     0.7808360291
C     1.7433322955     0.7032665304     2.5228911322
C     2.6923824409     1.1584553083     1.4837290949


