46

 C     -3.021514071     0.1268660795     -1.8936688152
C     -3.4388936816     0.1695716873     -0.5170986361
C     -3.1244164384     -1.1096712788     0.0914846236
C     -2.3108555325     -1.0481202788     -2.1036325531
C     -2.3478236894     -1.8685584493     -0.8852675113
C     -1.031803537     -0.6942191468     -2.7198210205
C     -2.1152383862     1.2396991515     -2.1356914394
C     -0.8909574831     0.7809116477     -2.6954307241
C     -2.9264134835     1.3653385811     0.0598627109
C     -2.1330667142     2.074228691     -0.9706279765
C     -2.4469988522     1.3396248208     1.4109560903
C     -2.7344391537     -1.1183329896     1.4495105658
C     -2.5044657887     0.1388622551     2.129058427
C     -1.6484766853     -1.9640646026     1.8270272399
C     -1.1725787252     -2.5734700631     -0.5150141347
C     -0.8494220243     -2.6449688581     0.9110060137
C     0.0534116413     -1.4674396281     -2.4478639405
C     -0.03671971     -2.5317577494     -1.4205055514
C     1.4100914521     -0.8805963521     -2.3996152134
C     0.3542450784     1.3842415795     -2.3225853565
C     1.5960914791     0.5434521888     -2.285045006
C     -0.94866847     2.7129186794     -0.6328813182
C     0.2528080686     2.5083168113     -1.4220841643
C     -1.1883200231     2.0329150167     1.757783848
C     -0.5363662555     2.8046716053     0.7908144678
C     -1.2397169213     0.0413926204     2.8952438622
C     -0.7439291358     -1.2315705251     2.7752146506
C     -0.3956281014     1.1730749623     2.6186461714
C     0.5476340474     -2.4984089532     1.3719755498
C     0.6058111574     -1.4773973703     2.422884126
C     1.2623356672     -2.6777563142     -0.9390388454
C     2.1961915901     -1.7963019965     -1.6472250037
C     1.6008472405     -2.6366953809     0.4799703294
C     3.1364152256     -1.3265291597     -0.7180137905
C     2.7308890939     -1.7798988849     0.6360390489
C     2.714363145     0.9726846897     -1.456861421
C     3.4459928399     0.0244301301     -0.6723850435
C     1.3611276126     2.8017724841     -0.5592299115
C     0.8641121051     2.8735068698     0.8393382244
C     2.5471959235     2.1286366857     -0.5894092421
C     1.0242664713     0.9944283365     2.4330857649
C     1.5551358684     -0.3993391752     2.3422041746
C     2.7139874137     -0.6573264918     1.5045164311
C     3.3251813654     0.4332472874     0.7576532495
C     1.6671039276     2.0178733069     1.6351637632
C     2.8214734493     1.6997574808     0.8095612858


