46

 C     3.7701495626     -0.9986217524     0.4412787408
C     3.8430454379     -0.2559769082     -0.7051048218
C     3.458706519     1.1307537008     -0.4309414133
C     3.2454791834     -0.1253985037     1.5054146023
C     3.1498658068     1.2407711343     0.9818681586
C     2.0934691075     -0.7344849974     1.9962068935
C     2.8359137732     -2.105438502     0.2207324322
C     1.8612157062     -2.0145025568     1.211833757
C     2.9384001593     -0.8153281968     -1.7178930137
C     2.3649850598     -2.0206474283     -1.1668885385
C     2.4788995277     1.4730475027     -1.3935908958
C     2.087209404     0.2275287833     -2.1395733564
C     1.4703175213     2.3810240016     -1.0326257542
C     2.0392013006     2.0194265158     1.3384584756
C     1.3856551471     2.7638967231     0.3262999427
C     0.9316477886     0.049362543     2.3951986813
C     0.9271289587     1.4429269211     2.1337836185
C     -0.3458326666     -0.6038236969     2.4501412395
C     0.5129891425     -2.4486752899     0.9727922615
C     -0.5143398461     -1.9429874535     1.8468114548
C     1.0226980111     -2.2731107607     -1.4269615419
C     0.1266993489     -2.7384178123     -0.3736641801
C     0.6919132213     -0.0163312444     -2.4165525503
C     0.2287220501     -1.3504076799     -2.2093035027
C     0.0910958294     2.2388314418     -1.5357746646
C     -0.2994896186     1.0751061249     -2.2402687735
C     -0.0363952973     2.883760698     0.6524362862
C     -0.3379706746     2.1013377177     1.7881347705
C     -0.8164547592     2.7833898479     -0.5169105117
C     -1.5987329624     0.09523122     2.4070566821
C     -1.6213321925     1.4493107057     1.8776698467
C     -1.8560681589     -2.0662621032     1.4989381217
C     -2.577067548     -0.850049009     1.9384463559
C     -1.2406731232     -2.5399857796     -0.8057063277
C     -1.1761614494     -1.6360190385     -1.9389874899
C     -2.2683584541     -2.3469645273     0.1545302637
C     -1.7164648786     0.7334415089     -2.2005406415
C     -2.1477461135     -0.6476511773     -2.114281367
C     -2.1295916611     2.3328959611     -0.3882059385
C     -2.6128620975     1.774659873     0.8763269179
C     -2.6606623589     1.5270014887     -1.450099619
C     -3.548560952     -0.5330051763     1.0138076113
C     -3.3904740201     -1.4873368136     -0.1391441465
C     -3.3447850285     -0.6769042124     -1.2673935299
C     -3.6313926287     0.804415049     0.5008960171
C     -3.6839920773     0.7002091579     -0.918649553


