46

 C     -3.7167657366     0.1941397828     -0.0953222156
C     -3.3401378165     -1.1389503577     -0.4201525114
C     -2.8591004134     -1.769539935     0.7447415568
C     -3.1861756463     0.488056659     1.2506952665
C     -2.7101736259     -0.7212912653     1.7941649192
C     -2.3676334923     1.6484403655     1.2064798932
C     -3.0436653517     1.0566572789     -0.9740041821
C     -2.4107209052     2.0982608872     -0.2096645642
C     -2.4785243334     -1.0916866435     -1.6181046976
C     -2.2401637787     0.3036109523     -1.9335583287
C     -1.4284141139     -1.9824004675     -1.7107136634
C     -1.6804601774     -2.5364276767     0.7149812627
C     -1.109742001     -2.8722134401     -0.5562554797
C     -1.392538877     -0.8172502986     2.2813845212
C     -0.783520854     -2.0465639251     1.7561679955
C     -1.0940948699     1.6649782351     1.8755807762
C     -0.5789447534     0.3812613449     2.4396995361
C     -0.1328319895     2.6200800121     1.4006497515
C     -1.3414963241     2.7359752276     -0.7808408112
C     -0.344057294     3.2742785415     0.0986335048
C     -0.9371310394     0.7773803311     -2.3121802618
C     -0.6158823123     2.1262467176     -1.9208124884
C     -0.1578966008     -1.5737188675     -2.292776432
C     0.1709488868     -0.1912887114     -2.4829183322
C     0.2433858192     -3.1582801963     -0.6027967174
C     0.8235120397     -2.4960293394     -1.7898781331
C     0.62025114     -2.2135911038     1.6741178128
C     1.1405746473     -2.948225208     0.5102018113
C     0.8131224981     0.1662865882     2.5092448939
C     1.4258143902     -1.1456824307     2.2293462987
C     1.2740292144     2.3848716351     1.4930312908
C     1.7659687476     1.2054688738     2.093933637
C     0.8653548616     3.4224719216     -0.5946837559
C     0.7273824255     2.5344318858     -1.760244223
C     1.8659325383     2.8187021685     0.2135356133
C     1.5661963939     0.2329042237     -2.1758557597
C     1.7924755853     1.5758532699     -1.7563612442
C     2.5911331688     1.8583619226     -0.5376775535
C     2.0982168042     -2.1093298899     -1.4797053143
C     2.3734662875     -2.5241529279     -0.0629409431
C     2.5123815364     -0.7502815175     -1.6466662247
C     2.7150482121     -0.880177098     1.6994702591
C     2.8981278016     0.5617641212     1.551901779
C     3.2212564186     0.8041788001     0.1631188747
C     3.1393041037     -1.5221815771     0.5074636128
C     3.3061897857     -0.4453998687     -0.4944310298


