46

 C     -3.5671219533     -0.6312650163     -0.7631679422
C     -3.5444991295     0.1062921083     0.5041560227
C     -3.1729335684     1.4217387172     0.2356422046
C     -2.9386921037     0.19908246     -1.7790814251
C     -2.7419994595     1.4576566926     -1.203710554
C     -1.7722301435     -0.4997680295     -2.2680166159
C     -2.8027318394     -1.7772192595     -0.6117435258
C     -1.7454760176     -1.7968985419     -1.6205575445
C     -2.7946247905     -0.662879127     1.4764267406
C     -2.410054758     -1.9223631188     0.7926659599
C     -1.8413630712     0.000337772     2.2653441954
C     -2.1583650451     2.0735890979     0.9802519661
C     -1.5482426479     1.4017962708     2.0674493066
C     -1.5308288393     2.177944675     -1.3016039619
C     -1.2733481167     2.7530747144     0.0220984667
C     -0.5345345611     0.206735243     -2.5076929607
C     -0.4226541671     1.6378746468     -2.0611954789
C     0.6347544074     -0.5892360608     -2.5273687393
C     -0.5322744607     -2.4779526968     -1.3642810288
C     0.6372311501     -1.9714497071     -2.0402564211
C     -1.2225789308     -2.542027403     1.0721650844
C     -0.3530090044     -3.0456842078     -0.0212040118
C     -0.5604733674     -0.6660218132     2.5773433858
C     -0.3334175431     -1.9942884531     2.1111185746
C     -0.1199409522     1.5898733574     2.3126143173
C     0.4923929522     0.2877387069     2.6286592284
C     0.0052228887     3.1146278489     0.3881639234
C     0.6037919867     2.5489625178     1.6183245603
C     0.8594400267     2.1793636832     -1.7671788853
C     1.0267342554     3.0418962499     -0.6167395603
C     1.9584038048     -0.0039276681     -2.2382637811
C     2.0677437065     1.3525609327     -1.8324777155
C     1.9328113158     -2.2183834173     -1.5027347642
C     2.7237341092     -0.9687088864     -1.5737980229
C     0.9413957946     -3.1263858981     0.5067989579
C     0.9694156082     -2.3610091798     1.7802027511
C     2.0792832453     -2.7479199708     -0.2238399349
C     1.8314239838     -0.0429821096     2.1557921982
C     3.28301198     -0.6871307764     -0.2694758202
C     2.0609588269     -1.4310619344     1.7583956227
C     2.8064352298     -1.7188418513     0.579725016
C     1.9914717883     2.2827780422     1.3020352701
C     2.2791099676     2.7591751796     0.0010954188
C     2.9095250548     1.6813471164     -0.7216942908
C     2.5742507943     0.963871275     1.4743137825
C     3.2528525932     0.6450868191     0.2052990311


