98

 C     -3.0580351192     2.8972521014     -1.9071443084
C     -3.4647469035     1.6872207069     -2.4984416313
C     -4.4386609301     0.941393085     -1.7761458379
C     -4.5950253891     -0.4751812744     -1.9889438603
C     -3.769412988     -1.1197884668     -2.8961768516
C     -1.749919061     3.4564922439     -2.1679908556
C     -0.8105654062     2.7926839871     -2.9861949183
C     -1.1792605387     1.5129890557     -3.5645191716
C     -2.5193646762     0.9890072518     -3.3643867246
C     -2.7141169731     -0.3899819158     -3.5624668383
C     1.1954449317     1.0719698829     -3.9311081894
C     -0.1201661688     0.5963426136     -3.9163322605
C     2.3288163988     3.7640162976     -1.1712783037
C     0.9899214023     3.9032728986     -1.620825172
C     0.5760991664     3.1651368684     -2.8062153439
C     1.5418691708     2.3721777263     -3.4626321514
C     -4.4059025858     -2.3647367919     -0.4344364491
C     -3.6234573964     -3.0734725714     -1.4254688507
C     -4.8952253272     -1.0932573977     -0.7161278889
C     -3.2778334012     -2.4527727857     -2.6114759367
C     -0.3458944413     -4.4622163641     -0.4143307401
C     -2.6264732342     -3.8557590679     -0.7443237198
C     -1.3346511017     -4.0617636868     -1.3101393455
C     -0.2860575357     -0.8402298934     -3.818324179
C     -1.6037020838     -1.2953955156     -3.7206914065
C     -1.9186334312     -2.5444337393     -3.1165364673
C     0.4817051446     -2.9196937766     -2.6674314547
C     -0.9162892616     -3.3075514454     -2.4899298877
C     0.7958326842     -1.7090803655     -3.3853223661
C     -4.2513738277     -0.3026724659     1.5449424669
C     -3.6812148955     -1.6302090069     1.8232211321
C     -4.8473680971     -0.0791794771     0.2847892585
C     -3.8200009075     -2.6272160615     0.83936241
C     -2.7731997299     -3.6160293767     0.6538873762
C     -0.5251046365     -4.3386829555     1.0036832929
C     -1.6735184737     -3.7158671226     1.5345875558
C     -1.5331105854     -2.7884912639     2.6340273311
C     -2.5908699278     -1.7788896282     2.7929695842
C     -2.3329501111     -0.6766683532     3.6038250419
C     -2.9404540204     0.6218533005     3.3738920128
C     -3.7849365968     0.8680051827     2.2826553523
C     -3.7374711736     2.1934692706     1.6577065346
C     -2.0024590539     1.5984884638     3.8415376741
C     -1.9030488305     2.8203919303     3.2136851468
C     -2.8126479148     3.1418445388     2.1625309672
C     -0.8165374067     0.9371372578     4.3005945542
C     0.4651511284     1.4843230457     4.0502866564
C     1.5295506204     0.5678658362     4.0625095891
C     0.0105557526     -1.3895715611     3.9954290071
C     -1.0455871914     -0.4727312801     4.1972435687
C     3.2989595094     -2.9639933941     1.8221232784
C     2.3004440955     -2.6999303308     2.8037404628
C     2.445997089     -1.477563335     3.4881388637
C     1.3135904053     -0.8425590673     4.0947495109
C     -0.2227575142     -2.587162999     3.2114681601
C     0.7577869356     -4.1696272556     1.5985129584
C     0.9529725675     -3.2814070997     2.6684155155
C     -4.1214979965     2.3205682072     0.2562114307
C     -4.6798032729     1.2050934985     -0.3915405228
C     -2.0988577365     4.0408014354     1.2768803112
C     -2.3979825005     4.0931438465     -0.0587021532
C     -3.4430031417     3.251359922     -0.5826706507
C     -0.7185670085     4.121605135     1.7053105614
C     -1.3436800096     4.2124810645     -1.028739822
C     0.01656029     4.2824547321     -0.6382501651
C     0.343635807     4.2095061611     0.7811874986
C     0.6034308735     2.6907624701     3.240965836
C     -0.5880588237     3.3778303727     2.9084055473
C     2.7392606283     0.8142990482     3.3351640795
C     2.8721019341     1.90967399     2.4651189895
C     1.7646279629     2.8696627306     2.3910207481
C     1.627415835     3.6836711708     1.2023125082
C     2.6313056466     3.6053291834     0.2148672202
C     4.5251066787     0.508139747     1.1207817086
C     3.8540840982     1.7875510357     1.3858240857
C     3.7687768661     2.7200609606     0.33622386
C     4.9820611783     0.2490252008     -0.1951140907
C     4.4816426143     -2.1453242425     0.0057091766
C     4.2437273976     -1.9617956939     1.4174797878
C     4.2129435676     -0.6487766154     1.9571698656
C     3.3539531032     -0.4607597873     3.0573844289
C     4.8299286071     -1.0785322531     -0.7719357935
C     1.7357644953     -4.3142871271     0.5429107
C     3.5759039411     -3.1404901321     -0.503992845
C     2.9708194567     -3.7308377658     0.6498330553
C     3.4147028944     0.9889495657     -3.2871415716
C     2.3203634895     0.1833586798     -3.7537583039
C     2.1455263137     -1.1585875145     -3.3428396433
C     4.3516825365     0.4401798259     -2.4369252984
C     4.2680118944     -0.9491825838     -2.092957327
C     3.1712455222     -1.7625346311     -2.5045336474
C     2.8276545856     -2.9183669829     -1.6938575352
C     1.4971245124     -3.5068351902     -1.7953531928
C     1.0498508296     -4.3063222851     -0.7123605592
C     4.2376415209     2.4255788314     -0.9891220339
C     3.3124428624     3.0291983265     -1.9232381105
C     2.9168187106     2.3328845133     -3.0524719234
C     4.7850316823     1.1817966972     -1.257900361


