98

 C     -3.4783895696     -1.4523947277     2.7068876641
C     -3.3501578484     -0.1113142335     3.112159198
C     -4.1600624287     0.8228330363     2.4001645766
C     -3.7307045365     2.1987107768     2.2577982037
C     -2.5979113889     2.6181371521     2.9098421473
C     -2.369022081     -2.3845987722     2.8643348261
C     -1.1354905721     -1.9857093382     3.4263157873
C     -0.9741997473     -0.6028667613     3.8483274668
C     -2.0873874216     0.3181085541     3.71151232
C     -1.7891232353     1.6926004056     3.6686340976
C     1.4417140391     -0.9707092734     3.8592387447
C     0.3701809906     -0.0687368278     3.9543505022
C     1.1462657385     -4.1200697227     1.3615877902
C     -0.0611109377     -3.7764197117     2.0190361133
C     0.0036609015     -2.8190223461     3.1168152566
C     1.2730549949     -2.3326981459     3.4983040939
C     -0.8094932097     4.385379299     0.2289140152
C     -1.9563124571     3.9731139036     0.9364238179
C     -1.7370222981     3.5862314083     2.2871232448
C     -0.4127723225     3.3601465501     2.7789224329
C     1.9545243417     2.9096306698     2.2211274009
C     0.7376462863     3.6811442984     2.0329390879
C     0.4931854582     4.3342580987     0.7929333955
C     4.0743772181     2.1126496347     1.2356422165
C     3.0112343437     3.0254005349     1.2101453858
C     0.6590604585     1.3382927095     3.7005867392
C     -0.441437171     2.1826661699     3.6050255867
C     2.7609878922     -0.5377845448     3.4399891046
C     2.9946175127     0.7969057997     3.0303988727
C     1.9251204694     1.7653620333     3.0957564784
C     4.0656504141     0.9877032994     2.1265909006
C     -3.0696236064     3.4168791428     0.1845980192
C     -4.0199339499     2.649170606     0.9177476768
C     -4.772015109     1.6004758306     0.307132495
C     -2.8966398421     3.1277620569     -1.2362217464
C     -3.7395089886     2.1618491674     -1.8188496652
C     -4.6663488072     1.3853175182     -1.0465471542
C     -0.670931599     4.1330717177     -1.1935433907
C     -1.6106716474     3.3807955043     -1.9012794148
C     -1.1248741632     2.5122157087     -2.987683215
C     -2.0125248773     1.4745388319     -3.4739860492
C     -3.2962498907     1.3324525666     -2.9062892765
C     -1.4564960364     0.3109732978     -4.0782871738
C     0.7205447357     4.076188137     -1.4992286423
C     2.5780731644     2.8941602199     -2.4356438879
C     1.2114336226     3.2407975684     -2.5261079928
C     0.2914113333     2.3920394235     -3.2402877269
C     0.8390408876     1.1485370506     -3.8001399009
C     -0.0459455303     0.1502582094     -4.1748013128
C     2.7074494713     3.653524568     -0.0838111755
C     1.4451145637     4.227634005     -0.2773554228
C     3.3440317427     3.1711135166     -1.2647230321
C     -4.1832789188     -2.2940201752     -1.2292903725
C     -4.7933683207     -1.0931588951     -0.7425034465
C     -4.7238714932     0.0405251802     -1.5906122898
C     -3.9227113279     0.0375830424     -2.7743623023
C     -2.0352506525     -0.9783379411     -3.896883786
C     -3.2494109455     -1.1411190196     -3.2014695608
C     -3.4070770059     -2.3130017485     -2.4118015451
C     -4.8387871653     -0.8709306413     0.7157581226
C     -4.8580687906     0.4558089204     1.21267052
C     -3.5690895559     -3.2455784124     -0.3173945492
C     -3.5910693212     -3.0207847489     1.0324363713
C     -4.2376356551     -1.834508014     1.5701181464
C     -2.3831932125     -3.7944259146     -0.9298838583
C     -2.4454241998     -3.3559256857     1.8357072506
C     -1.2708201235     -3.9274665133     1.2649331853
C     -1.2224543918     -4.1151194752     -0.1733108214
C     -0.9549895999     -1.936911912     -3.7644203271
C     -1.0198450471     -3.0080420752     -2.8375287921
C     -2.2818336337     -3.2347178214     -2.2199257465
C     0.1878475051     -3.4344455209     -2.1697826377
C     0.0524969237     -4.0722758737     -0.8596628444
C     1.1964960806     -4.2123604499     -0.0568986508
C     0.2605261425     -1.2605979304     -3.9865392532
C     1.4681457266     -1.686251502     -3.42443667
C     1.4558382066     -2.8401059524     -2.5478396879
C     3.7399532372     -2.1948349455     -1.8242010722
C     2.6273038855     -3.0629792285     -1.7216850128
C     2.4970942232     -3.7572173061     -0.499834953
C     4.2847931318     1.3017413386     -2.31740863
C     3.1053761026     1.6761298305     -3.0320594664
C     2.2207367876     0.7294610892     -3.5667140528
C     4.5935347822     -0.0475526004     -2.1583713501
C     3.7138650634     -1.0341616753     -2.7009744942
C     2.5377735473     -0.6938017542     -3.3846777287
C     5.1661820408     0.3217055003     0.1893977043
C     4.79543329     1.7147328742     0.0382443479
C     4.4118456659     2.2025600246     -1.1961548972
C     5.0808739959     -0.5412536482     -0.8924787989
C     3.4164689175     -1.6359818278     2.8194700142
C     4.3206245466     -1.453151391     1.7347937261
C     4.7308303135     -0.1192821692     1.4977270976
C     3.2811054664     -3.4210633394     0.6386804336
C     2.4267073227     -3.6200086704     1.7927651614
C     2.4917253806     -2.7517784095     2.8556030648
C     4.561233913     -1.88641149     -0.6976611234
C     4.2423278542     -2.3780776987     0.5954640961


