98

 C     -2.8763688849     -2.9071596601     -2.040394894
C     -3.3573461407     -3.1131817478     -0.7175045373
C     -4.4457295883     -2.3001118841     -0.2974667408
C     -4.6449441011     -1.9965568004     1.0776139789
C     -3.7654451334     -2.5202343618     2.0321270816
C     -1.554808455     -3.2162097071     -2.3933907924
C     -0.6217756418     -3.757626596     -1.4795009531
C     -1.0394095679     -3.9319162075     -0.1083258388
C     -2.4098054655     -3.6277575846     0.2670943588
C     -2.669035245     -3.337247109     1.6304089784
C     1.3237608073     -4.0578140391     0.5122294898
C     -0.0034126327     -3.9381695954     0.9133146029
C     2.531593142     -2.3348539244     -2.953676424
C     1.1979431862     -2.7563898717     -2.924001261
C     0.7734072065     -3.656363528     -1.8495242776
C     1.7179115554     -3.9915502218     -0.8648391957
C     -4.631201716     0.1799943958     2.2096418378
C     -3.7171950793     -0.3628626389     3.2017618589
C     -5.093811329     -0.6205144525     1.177120324
C     -3.3095788239     -1.6788058298     3.1223663231
C     -1.9391867878     -2.004019324     3.4112273012
C     1.3989991394     -0.3293957668     3.8062719497
C     2.749749282     -0.6222623732     3.5444449333
C     0.4102723394     -1.3727957374     3.6011657339
C     -0.9823203096     -1.0315224115     3.7669467539
C     -1.4084505948     0.3680633688     3.7995331425
C     -2.7587826006     0.6574941763     3.5317979086
C     -0.2551893455     -3.333701544     2.2153825728
C     -1.5729093914     -3.0875486892     2.5516833813
C     2.4089531023     -3.5319461057     1.3102551779
C     2.143932797     -2.7624134156     2.4691779373
C     0.7767851143     -2.5699481698     2.8941353013
C     3.1232526156     -1.8180250429     2.8324271455
C     -3.5077239073     3.2133847075     0.4003335397
C     -4.3916740573     2.1342338011     0.6803112758
C     -4.2659834462     1.5523999009     1.9692964339
C     -3.1311531291     1.8439065536     2.8037318238
C     -0.784780359     2.596590903     2.8593687268
C     -2.1512522513     2.7835109468     2.4297985098
C     -2.4144430727     3.537937107     1.2605705701
C     1.5654555366     3.109736888     2.5139349191
C     0.2482713925     3.3514852973     2.1723883291
C     0.9729364909     1.0696429087     3.754846386
C     -0.4193909102     1.4087202827     3.5824524655
C     1.9303694802     2.0374493761     3.3880399224
C     -4.8590643427     1.29120166     -0.4362352327
C     -5.1904544317     -0.0789274952     -0.1622244576
C     -3.0711115007     3.4920234327     -0.9483984569
C     -3.483679241     2.6802538795     -1.9826317815
C     -4.3913481253     1.587479041     -1.7410908053
C     -1.7199701002     3.9692773569     -0.9192149536
C     -2.5303678634     2.2855933108     -2.9876492505
C     -1.1967632684     2.7074976998     -2.9613510219
C     -0.7739140274     3.621343503     -1.8979760655
C     -0.0014489398     3.9390013293     0.8621902999
C     -1.3279880424     4.0534072919     0.4574933574
C     2.6630354409     3.3474687493     1.5912254109
C     2.4059558965     3.6202520081     0.2238483771
C     1.0361568356     3.919494654     -0.1576474847
C     0.6206803126     3.7274145045     -1.5271028637
C     1.555150511     3.1741940723     -2.4324156903
C     -4.0329587766     0.5405094148     -2.6621963945
C     -4.2246314949     -0.8293207589     -2.3160510319
C     -4.8389072281     -1.1201113508     -1.0668977737
C     -3.2943417097     -1.7583031726     -2.826478439
C     -2.8897064827     0.9591809499     -3.4244441429
C     1.1244823672     2.2013859959     -3.4325051727
C     -0.208527722     1.843622942     -3.5981061798
C     -0.5262613737     0.4606217463     -3.958149141
C     -1.9060763585     0.0346623732     -3.8474537877
C     -2.1876476947     -1.3410161528     -3.6251893786
C     2.1899168864     1.283178959     -3.6387718957
C     1.9086820174     -0.0952727834     -3.8436022528
C     0.529037845     -0.5226435848     -3.9509326142
C     0.2107221593     -1.9008595044     -3.5734685378
C     -1.1225480186     -2.2564578172     -3.4053373169
C     2.8916291989     -1.0142154756     -3.4070757092
C     3.2953534311     1.7108102548     -2.8437974257
C     4.8371324209     1.0955250473     -1.0736499296
C     4.2248234756     0.7885364798     -2.3198864387
C     4.033681426     -0.585671104     -2.6485217997
C     3.7588012202     2.5357450163     2.0052410077
C     4.6397966726     1.9997269973     1.0589941544
C     4.4427536497     2.2854088317     -0.3202211208
C     3.3550431376     3.0929457478     -0.7524944419
C     2.8761484041     2.8697645769     -2.07335196
C     4.6242539791     -0.1619473204     2.2191560363
C     3.7086887136     0.3937332256     3.2027040638
C     3.301208251     1.708532191     3.1055856235
C     5.0884915358     0.6250990377     1.1770607491
C     3.5035929761     -3.2185753661     0.4476027447
C     4.3871143745     -2.1358751855     0.7149447289
C     4.2594002613     -1.5373620924     1.9960705346
C     4.3906072772     -1.6205952023     -1.7133477226
C     3.4833163726     -2.7164270619     -1.9421165883
C     3.0691023943     -3.5146999741     -0.8980817154
C     5.1872394996     0.0661718422     -0.1549860813
C     4.8562725784     -1.3073989936     -0.4117100928


