98

 C     3.3446317804     -3.2005807879     0.4980676672
C     4.2493163292     -2.3342592496     1.1628077287
C     5.0163307331     -1.3592747904     0.4610809154
C     3.1734266412     -3.0468721757     -0.9502419753
C     3.9811191129     -2.1082575403     -1.6137774894
C     4.9183706237     -1.2739234762     -0.9225417523
C     1.0101851361     -4.1784443801     -0.8305960744
C     1.9028825224     -3.4245377718     -1.5911165723
C     1.3681397239     -2.6691150268     -2.7366591719
C     2.1816042371     -1.6005523818     -3.2702944753
C     3.4640066423     -1.3491583468     -2.7390169001
C     1.5538720249     -0.5007279018     -3.9051601088
C     -0.3778934035     -4.2450108386     -1.1507440788
C     -2.3024978668     -3.284566958     -2.1987206875
C     -0.9137427859     -3.5300265696     -2.2452226525
C     -0.0486690104     -2.6637330605     -3.0077427695
C     -0.6751114495     -1.5021856032     -3.6519723347
C     0.1411662351     -0.4527176169     -4.0482542506
C     5.0442873652     1.0918412974     0.6300753903
C     5.0010707599     1.1784182187     -0.8254032237
C     5.0422194768     -0.1360891811     1.2521361004
C     4.9220273012     0.0210087292     -1.573913276
C     4.0061211621     -0.0283742541     -2.6851253282
C     3.2156521365     1.1104106939     -3.0394879946
C     2.0299296433     0.8343606959     -3.7316400547
C     2.8068876112     3.8145847094     0.1420389708
C     4.248121386     2.1601485408     1.1702441918
C     3.9044221022     3.0043418769     0.0586359494
C     3.2727163699     2.3289084244     -2.2385883712
C     4.2112367436     2.3423386178     -1.1774057464
C     1.9514588277     3.9910313673     -0.9951141397
C     2.0763553702     3.1839904074     -2.1366204922
C     1.9994688022     3.8211495822     1.328855249
C     2.1403252942     2.8155357084     2.3089544997
C     3.3204533839     1.9538780183     2.2315218563
C     3.2955672872     0.6492272748     2.8680888095
C     4.2220379364     -0.3374281163     2.4195229365
C     3.8829494114     -1.7323450172     2.4390438902
C     2.0665326582     0.2040766191     3.5176773468
C     1.8771622959     -1.1812527228     3.6984815516
C     2.7557936651     -2.1423336884     3.0991304024
C     -0.4113108455     0.4132608101     3.8045286909
C     -1.5636821355     1.1901283684     3.6850988751
C     -0.3132573311     3.1057544218     2.7939594732
C     0.9264476682     2.381595378     3.0147554092
C     0.8816409009     1.0476323667     3.5645318615
C     -1.5254847435     2.5254507639     3.2297510102
C     0.7126326961     4.3218055871     0.9374843431
C     -1.661289769     4.2228469842     1.0148516209
C     -0.4286348241     4.0642102581     1.7008127622
C     0.8783531959     1.7105598309     -3.6782769731
C     0.8320231699     2.8388271756     -2.8416790382
C     -0.4774485429     3.263790982     -2.3719214119
C     -0.5298764087     4.1157994636     -1.1886862796
C     0.6662626488     4.3853794378     -0.4928224154
C     -1.7017315683     4.1991763334     -0.4102942282
C     1.1448326225     -4.3004819631     0.6111178016
C     2.2471026294     -3.7470584718     1.2889615584
C     1.9802825849     -3.2405138049     2.5875767971
C     0.6368037901     -3.0575888966     3.0398657613
C     -1.7500259659     -2.8587472914     2.4345298467
C     -0.4768880681     -3.5454786875     2.3267220944
C     -0.1668686424     -4.2947606979     1.1566383614
C     -3.9226536804     -2.3365636967     1.3800830577
C     -2.7855149806     -3.153428471     1.4376081793
C     -0.5884332958     -1.0348334822     3.7188701035
C     0.5699980024     -1.7890754996     3.7120340245
C     -2.8488310729     0.6034931524     3.3320863645
C     -2.9677448901     -0.775157932     3.0428432651
C     -1.8164294905     -1.6326954385     3.1856737166
C     -4.0189120424     -1.1409033755     2.1692519974
C     -2.4133880615     -3.8633684523     0.2056095075
C     -1.1074036059     -4.351999676     0.0726542361
C     -3.067362345     -3.5309856234     -1.016966337
C     -5.1520979769     -0.7403039978     0.1815125701
C     -4.6558403981     -2.1025339131     0.1488812747
C     -4.2096775063     -2.6543886115     -1.0378055326
C     -5.1213840151     0.0349076499     -0.9686557162
C     -3.6102025802     1.5810750846     2.6433452808
C     -4.4973888522     1.2237310619     1.5818286827
C     -4.7803917322     -0.1559435447     1.453261466
C     -3.675626172     3.2038362526     0.337984373
C     -2.8676211496     3.5903615093     1.4770144283
C     -2.8035378081     2.782604272     2.5864937512
C     -4.7375572884     1.4310089635     -0.8812340334
C     -4.5050995769     2.0558492877     0.3719999713
C     -0.2765676603     0.9355486701     -3.9404859785
C     -1.5443773614     1.2929206459     -3.4833405797
C     -1.670054807     2.5211876468     -2.7291213924
C     -3.9158276605     1.7256593509     -2.0169386663
C     -2.9043712745     2.7130970063     -1.9706340567
C     -2.9128591323     3.5344127156     -0.8196611612
C     -4.1309887111     -1.8340943467     -2.2256845691
C     -2.9104473193     -2.1621646141     -2.8936272307
C     -2.0921664476     -1.1834652155     -3.4773555669
C     -4.5580799476     -0.5119234519     -2.1821454422
C     -3.7543917697     0.5045138153     -2.7871602334
C     -2.5301546681     0.2167805838     -3.4089892105


