98

 C     -4.7782827848     1.1712673477     -0.6182554138
C     -4.6104545639     0.2040701279     -1.6368294557
C     -4.6731295331     -1.1622132299     -1.2641856342
C     -3.7778185512     0.5478287035     -2.7366948916
C     -3.1204759094     1.8162622788     -2.7946544746
C     -3.2975813201     2.7950849539     -1.7912704426
C     -4.2012219311     2.4634813117     -0.7278142175
C     -2.8999004978     -0.4348548921     -3.3083469082
C     -2.8958436796     -1.7726225618     -2.8879325762
C     -3.9203034424     -2.1509555741     -1.9523843942
C     -3.7150988997     -3.251327332     -1.0408907571
C     -2.5707451163     -3.9996801238     -1.1404395053
C     -1.6879344173     0.2251702085     -3.7026328379
C     -0.432746687     -0.4109316663     -3.6660658985
C     -0.3852575365     -1.816203133     -3.2723551242
C     -1.6218395459     -2.4913150293     -2.9069284464
C     -1.5364150496     -3.6527103341     -2.1007448614
C     2.0981291343     -1.595489038     -3.0491725262
C     0.8825601291     -2.3659981388     -2.8627064549
C     0.913072734     -3.4783769251     -1.9378657542
C     -0.2977348297     -4.0678995399     -1.5560375883
C     3.2811644782     -2.0695274542     -2.4264359796
C     2.0276978966     -0.1920493323     -3.4330258298
C     0.7351377027     0.4385013608     -3.6101501226
C     3.1526552855     0.6267864129     -3.1699614988
C     -0.7362830615     2.4367201372     -3.1640245629
C     -1.8371639334     1.6178211689     -3.4254936124
C     1.5132466735     3.7289642804     -2.0567426401
C     1.7181637631     2.6147892065     -2.8998102779
C     0.5796689356     1.8649538583     -3.3777524199
C     2.9736320252     1.9903538535     -2.799387992
C     -0.9475477404     3.592526514     -2.2875967669
C     -2.1440277074     4.3356491702     -0.2600450873
C     -2.1988373975     3.7240178017     -1.5408598478
C     0.204892927     4.2045987578     -1.7572651252
C     -3.5153060844     -3.2071596985     1.4142494723
C     -2.3602721475     -4.075864447     1.3088177294
C     -4.2290200568     -2.8645827188     0.264681864
C     -1.9136717091     -4.4923874687     0.0598047608
C     -0.5120387403     -4.5561184034     -0.201413496
C     -1.3948269138     -3.659992857     2.2874363509
C     -0.0159306523     -3.7767657864     2.0725002345
C     0.4434256437     -4.2957960701     0.7891780779
C     3.2447833054     -3.0804487437     -1.3990544147
C     2.0381723163     -3.6983059362     -1.0538302522
C     1.7910581368     -4.0324533078     0.3423417015
C     2.7074488982     -3.5801981084     1.3051357348
C     -0.7959152035     0.8572380957     3.9111299334
C     -1.6881772091     -0.1735609284     3.5962785251
C     -3.2386374685     -2.2201660034     2.4149498201
C     -3.7155011113     -0.8912139994     2.3022372198
C     -1.9343629202     -2.513098924     2.9710487362
C     2.2234730539     -2.929297391     2.5101451158
C     0.8523338668     -2.8911808334     2.8219940718
C     0.3271608713     -1.7264871934     3.4889657057
C     -1.1163908774     -1.5097562247     3.4928925932
C     1.2113673176     -0.6057186129     3.6991168567
C     0.6276890977     0.6525414277     3.926278258
C     -2.9604709405     0.1662520523     2.9558377496
C     -4.5830762304     -0.5908914062     1.1663929493
C     -4.7683368547     -1.5581954183     0.1414849561
C     -3.2144154601     1.5429119257     2.5935360198
C     -4.1383036505     1.8012407842     1.5335528556
C     -4.7274235219     0.7663732501     0.7860764106
C     -1.0436920899     2.2156855745     3.5438723079
C     -2.224252518     2.5793659877     2.8723504512
C     -2.1126710068     3.7223148622     2.0263683548
C     -2.9378473273     3.8211308149     0.8339544457
C     -3.925614681     2.9090123906     0.6155714622
C     3.1042953144     -1.8454312337     2.8015802653
C     2.5892810795     -0.614271113     3.2598239051
C     1.2544176238     1.8629057502     3.5067677054
C     0.2222284437     2.826358447     3.2614470745
C     4.2143177635     -1.9066677996     1.883263768
C     4.8346672387     -0.7446979514     1.472604563
C     4.3311057924     0.5305613791     1.9325870689
C     3.2225273058     0.6234316997     2.798878085
C     2.4681543062     1.8645063891     2.7856117139
C     2.6690010936     2.8659566023     1.7524252055
C     0.3694373569     3.8108068084     2.2669539687
C     -0.8535291342     4.2999088587     1.7175726471
C     4.9467690918     -1.5793876973     -0.8354276689
C     4.2474023932     -2.770426011     -0.4118020664
C     3.9445474642     -2.9655307225     0.9328465393
C     5.2670664319     -0.5910149906     0.0975848325
C     4.7357119499     1.1618739806     -1.5339555263
C     4.3112739891     0.1348708841     -2.4679501279
C     4.3878976484     -1.1946061978     -2.1192540242
C     5.1147331613     0.8070229224     -0.2430500701
C     2.333153306     3.8934389656     -0.8811419659
C     3.4510467789     3.0750824804     -0.6304526121
C     3.8950406237     2.2956512489     -1.7265211241
C     -0.9062869741     4.7337609159     0.3272222633
C     1.6026151256     3.8238411034     1.4771206315
C     1.5197453249     4.3806480966     0.1760274635
C     0.2422737712     4.723011537     -0.4125268802
C     4.5371801826     1.498481284     0.8936696311
C     3.6686508656     2.6055145295     0.7315320991


