98

 C     3.6297875102     -1.9593674068     -2.3119357013
C     3.8147037335     -0.5901564414     -2.57555083
C     4.6269523087     0.1028124084     -1.6327294143
C     4.5623060043     1.5355653617     -1.50651624
C     3.6748828348     2.2427689985     -2.2972580439
C     2.4665389087     -2.6484537468     -2.8155062579
C     0.2035930612     -2.5719697171     -3.5417195625
C     1.4610728716     -1.9497112337     -3.5308760766
C     1.5336522236     -0.5078669342     -3.7035659964
C     2.7744559558     0.1458908136     -3.3109918668
C     2.7593720506     1.5390188063     -3.1738246816
C     4.0210753349     2.9583968829     0.4174826433
C     3.181361439     3.7660280714     -0.4406844437
C     4.7155004594     1.87590068     -0.1085766673
C     2.9803175736     3.3905512869     -1.7596415316
C     -0.3030620143     4.4152791778     0.6249563662
C     2.0531661102     4.2184868679     0.3283437337
C     0.7733887573     4.3900975877     -0.2685350888
C     1.648164347     3.409052265     -2.3294516776
C     -0.7761871798     3.4156482381     -2.0255964199
C     0.5382812488     3.8952301003     -1.6328775651
C     -3.1262382347     3.0957609589     -1.349241991
C     -1.8913996908     3.726443534     -1.1475531446
C     -1.6412044744     4.1679745929     0.181405766
C     0.2901296931     1.6565483353     -3.4503650749
C     1.5272910668     2.2727340312     -3.1980669403
C     -3.3739630263     -0.5126563079     -3.276153432
C     -2.2261833112     0.2690127259     -3.5997815342
C     -2.1866831536     1.6432105226     -3.1206064005
C     -0.9068356988     2.3197981836     -2.9611098702
C     -3.3031770678     2.1334086679     -2.4024801961
C     0.302136287     0.2496630985     -3.816208401
C     -0.9814473696     -1.8418670358     -3.8376664822
C     -0.9793783449     -0.4343437433     -3.9047751219
C     4.1269152441     0.4877365815     1.8608814192
C     3.341718636     1.6139879093     2.3901803246
C     4.7940067456     0.6573736054     0.6297695836
C     3.3538580451     2.8243709523     1.6738420465
C     2.1733851115     3.6676326374     1.6426214151
C     -0.1806587789     3.9400460435     1.9659558416
C     1.0331672696     3.387177816     2.4276209769
C     1.0013824069     2.2141480105     3.266618252
C     2.2032360441     1.368188639     3.2832160064
C     2.0988482069     0.0807682198     3.8040786807
C     2.9136146975     -1.0265829071     3.3265764845
C     3.8241115583     -0.881769923     2.273413705
C     4.0100196987     -2.0140159853     1.359622438
C     2.1203489295     -2.2082708635     3.4815210613
C     2.2207596622     -3.2369871032     2.5728266539
C     3.2128548839     -3.1728940697     1.5527943028
C     0.8314503187     -1.8509788492     3.9903179319
C     -0.3387116877     -2.4939267014     3.5232020135
C     -1.5277561999     -1.7791342671     3.7098644936
C     -1.4472461601     3.4031499136     2.3484061025
C     -1.5385183721     2.2725550919     3.1626953904
C     -0.2841748881     1.6852737857     3.6693457095
C     -0.3359106199     0.3344071799     4.1737402091
C     0.8426730142     -0.4397276367     4.2430904263
C     -1.5387289891     -0.40046964     4.0816061998
C     4.4780712718     -1.7492751186     0.0045886998
C     4.8655405004     -0.4416873172     -0.3308093425
C     2.6895730096     -3.9290464884     0.4316127829
C     3.09530447     -3.64016238     -0.8429416494
C     4.0130240608     -2.5534757546     -1.0740461637
C     -0.1340266627     -3.609507878     -2.6032403863
C     2.1373207015     -3.6995627773     -1.9115146525
C     0.7826724308     -4.0591679819     -1.6565908359
C     -0.2753490617     -3.4459710319     2.4146249171
C     1.0146323272     -3.8627005764     2.0343387558
C     1.2996435212     -4.2760404433     0.7118524244
C     -1.0661260844     -3.9261693772     0.0827476254
C     0.3053258357     -4.265832239     -0.2904533282
C     -1.3583556979     -3.5255077415     1.4397678063
C     -3.5141194952     -0.8833060333     2.9917118541
C     -2.6875072155     -2.053859123     2.9112936601
C     -2.6193534872     -2.8337737223     1.735420222
C     -4.4269121665     -0.614906483     2.0104827526
C     -4.5515347478     -1.5149980801     0.892831707
C     -3.5965166854     -2.551123109     0.6811370388
C     -3.2877607427     -2.9236419321     -0.687122888
C     -2.0245857927     -3.6017833756     -0.9796703889
C     -1.5294423785     -3.5087155651     -2.2990085401
C     -3.790634157     1.7828541339     2.0286346547
C     -2.7794930298     1.4834635011     3.0596117737
C     -2.7498919742     0.182183765     3.5780719499
C     -4.647965091     0.7399095746     1.589434736
C     -4.8077617918     1.6516811112     -0.6810076483
C     -4.0008807856     2.7575903472     -0.255899567
C     -3.5346449176     2.8569782459     1.0829598606
C     -2.3867244752     3.6504151418     1.2738280035
C     -5.1387079234     0.6640591345     0.2307261183
C     -4.7803373852     -1.0672955565     -1.4831876632
C     -4.4253255689     -0.0220385942     -2.4369795386
C     -4.4093449556     1.2960877476     -2.031599507
C     -5.0993452853     -0.734178571     -0.1837377828
C     -2.0686027729     -2.5538620074     -3.2237197033
C     -3.937657217     -2.2038329828     -1.7326495362
C     -3.2329355712     -1.9100285323     -2.9507477445


