98

 C     -4.1406242802     1.2939196785     1.4757490597
C     -4.8229553324     0.3074459566     0.7409630416
C     -4.8664162468     -1.0558864817     1.1693663076
C     -3.4544436228     0.9050057384     2.7108051352
C     -3.4621262379     -0.4536802817     3.0759303628
C     -4.155682744     -1.4335924153     2.3104051568
C     -0.9259595115     3.6440166258     2.6815178037
C     -2.2045754125     2.993778822     2.6693167319
C     -2.3817574278     1.7249261547     3.2464603554
C     0.1250552918     3.0860255375     3.3596965945
C     -0.0558117195     1.8461276007     4.0520911645
C     -1.2426545071     1.109255475     3.9354131574
C     -0.6872492673     4.2729756381     1.4146409416
C     0.5615429837     4.143469559     0.7497706924
C     0.5604453851     4.1506627874     -0.7049943427
C     -4.0869210544     -3.0688083109     -0.0098277388
C     -3.2923564836     -3.4150526944     1.1517506521
C     -4.858538946     -1.9086626648     -0.0034970776
C     -3.3515181684     -2.6387511818     2.2931935532
C     -2.1536384243     -2.3897050173     3.0509243807
C     1.5711805876     -2.7060298282     2.6814665357
C     2.7262737967     -2.0086028189     3.0824252974
C     0.2805642757     -2.2666314026     3.1901291383
C     -0.8970222455     -2.9050510648     2.6672585298
C     -0.8261930257     -3.6732154004     1.4237724949
C     -2.0106696146     -3.9077284504     0.703607563
C     -1.1284430208     -0.3474133395     3.9669232007
C     -2.256060578     -1.0774974408     3.6093135716
C     1.2252546548     1.2009987183     4.0974162868
C     1.3475279973     -0.2059724753     4.0727307121
C     0.1623448367     -1.011603936     3.8919894487
C     2.6008181093     -0.7090883003     3.6852369366
C     -4.1591968379     -1.4106870998     -2.3136358451
C     -3.3550207412     -2.6159543696     -2.3095912198
C     -4.8682007919     -1.0443103772     -1.1678408191
C     -3.2941286436     -3.4035285594     -1.1759848991
C     -2.0117662156     -3.9006254385     -0.7346989562
C     1.6303368787     -3.4444053141     -1.461130855
C     2.8373745468     -3.4762265177     -0.7386305163
C     0.4177163894     -3.7445043177     -0.737687076
C     -0.8283800663     -3.658970577     -1.4542980553
C     -0.9010915552     -2.8785143767     -2.6899918231
C     -2.1582852099     -2.3594076767     -3.0666282078
C     1.632523597     -3.4587239729     1.4290228851
C     0.4188100813     -3.7516377421     0.7044665784
C     2.8384650981     -3.4833664248     0.7044266181
C     -4.1428861559     1.30843233     -1.4520503682
C     -3.4585908518     0.931773192     -2.6919475127
C     -4.8240901991     0.3147158987     -0.7260283895
C     -3.4668112134     -0.4232374944     -3.0704825861
C     -1.2486106328     1.1481317546     -3.9177380441
C     -2.3866795971     1.7569512392     -3.2210427596
C     -2.2086030802     3.020031593     -2.6316405333
C     -0.0619444241     1.8861260734     -4.0289404179
C     0.1199901353     3.1191081266     -3.3245907331
C     -0.9299899476     3.670361841     -2.6393391357
C     -2.2615431987     -1.0417284767     -3.6118157445
C     0.1564421607     -0.9730378826     -3.8975132127
C     -1.1344566206     -0.3081439204     -3.9638764916
C     2.5952349562     -0.6725674205     -3.6914510739
C     1.3413623036     -0.1656486667     -4.0720518111
C     1.2190531793     1.2414972999     -4.0826103463
C     1.5670983735     -2.6793546755     -2.7059662738
C     0.2757116845     -2.234946733     -3.2082948467
C     2.7215907648     -1.977979181     -3.1017301524
C     -2.8565216018     3.3745812365     -1.382867626
C     -3.7138861043     2.4884851502     -0.7174444683
C     -3.7127667997     2.4812040992     0.7522272414
C     -1.9411582238     4.2158955269     -0.6603925267
C     -1.9401170974     4.2091067849     0.7095992418
C     -2.8543865341     3.3606739329     1.4250937505
C     -0.6893484089     4.2867347084     -1.3666586698
C     4.4638572306     -0.6416698358     -2.3211072677
C     3.6145047925     0.1727945106     -3.133868137
C     3.2915017723     1.5020126356     -2.7510251212
C     2.1543851673     2.0471659567     -3.3601416178
C     5.0105809393     -0.1087411706     -1.166863045
C     4.7101727433     -2.2619538397     -0.0124824693
C     4.0088770567     -2.7588507808     -1.1767864555
C     3.9309465906     -1.9905245554     -2.3233080094
C     5.1990697872     -0.9493188245     -0.0063545869
C     4.4673558736     -0.6646013461     2.3124389176
C     3.9344547672     -2.0134263927     2.302097319
C     4.0106297061     -2.7703518389     1.1479004966
C     5.0123282416     -0.1202714056     1.1626977715
C     2.159494288     2.0137976595     3.3815408291
C     3.2956759185     1.474707604     2.7653337889
C     3.6192405225     0.1417618348     3.1345061459
C     1.4446495185     3.1420007661     -2.7639571548
C     1.6760809024     3.5370456217     -1.4269955095
C     3.6736913507     2.0029731764     -1.4327374662
C     2.7971353461     2.920318937     -0.7077046312
C     2.7982316613     2.9131789824     0.7369024158
C     1.6782666639     3.5227344759     1.4639662831
C     1.4488620544     3.1144729118     2.7972994069
C     4.5881796348     1.2083525154     -0.7069379664
C     4.5892573473     1.2013144788     0.7164733456
C     3.6758806799     1.988709564     1.451492752


