98

 C     -4.8820044666     0.7373048626     0.1122291069
C     -4.6023993473     1.6012495663     -0.978502577
C     -4.1616158804     -1.0329215475     2.2559214811
C     -4.0742873817     0.3187640999     2.4321993489
C     -4.4995340477     1.233342738     1.394580391
C     -3.1509585022     -1.8876776244     2.8199259169
C     -3.726350697     2.4153596528     1.545098732
C     -3.4061165154     3.2510176095     0.4565224032
C     -3.9291276257     2.8451371053     -0.807847872
C     -1.2843370969     3.8926137644     1.6755060196
C     -2.1855376008     4.0465424137     0.5309969613
C     0.0273737394     4.3683350387     1.5553177555
C     -2.7524179656     2.185557308     2.6121139712
C     -0.4040238754     2.1028003936     3.2671336293
C     -1.5121892631     2.8172340237     2.6446680084
C     2.0505409722     1.8510239575     3.3752727172
C     0.9213670296     2.6684581427     3.137781923
C     1.1196837065     3.7872812395     2.293475109
C     -0.8461171331     -3.4661314693     2.6679119319
C     -0.7453441619     -2.1952549024     3.2845978219
C     -1.951496455     -1.3745212956     3.3750210542
C     -1.8364856446     0.0706886427     3.5145393254
C     -2.9370688046     0.871086527     3.1181593645
C     0.5632105496     -1.600491541     3.3794605422
C     0.6399457901     -0.1578137302     3.6777148439
C     -0.547648813     0.6984650743     3.6096604641
C     1.8912452855     0.4465935689     3.6384783775
C     0.5645469002     4.7942031097     0.2950511525
C     -0.2240966019     4.7436361992     -0.8266453138
C     -1.616900731     4.4747100163     -0.6951400969
C     -2.0248025372     3.8582782353     -1.9384608583
C     -3.1418835186     3.082406534     -2.0022082104
C     1.9471861367     4.4100520181     0.2212039934
C     2.4649498202     3.8134795605     -0.9533159489
C     3.6171480777     3.0102675196     -0.7857550565
C     3.2851719986     2.0301198669     2.6905920361
C     3.4013945659     3.0076613102     1.6680494185
C     2.3286012916     3.9172263477     1.5187213137
C     4.1298243879     2.6581061171     0.4897570368
C     -4.0775663591     -0.3013029315     -2.4311248914
C     -4.1611391616     1.050609406     -2.2547614746
C     -3.1487936893     1.9026868331     -2.8197926909
C     -0.8396252503     3.4750262957     -2.6701074703
C     0.5640387381     1.6056612258     -3.3830774813
C     -0.7428430343     2.2038895555     -3.2868955083
C     -1.9512540675     1.386354523     -3.3760961768
C     1.8863880652     -0.4449310102     -3.643433317
C     0.6366526641     0.1627890693     -3.6814127326
C     -0.5531358292     -0.6903426772     -3.6121528729
C     -1.8402099813     -0.0591539115     -3.5157293735
C     -2.9425056865     -0.8566359257     -3.1182305256
C     1.5514342404     3.507629263     -2.0666001217
C     0.2764375158     4.0796799645     -2.0259760347
C     3.9209046435     1.949013585     -1.7117245333
C     2.982159892     1.5672270857     -2.6981089339
C     1.7209565803     2.2889484846     -2.8449993586
C     3.057678479     0.2332251508     -3.1614661299
C     -4.6056298018     -1.5823919235     0.9801116513
C     -4.8840441702     -0.7177057051     -0.1103356691
C     -4.5041828978     -1.2147517041     -1.3930730438
C     -3.7342815976     -2.3988102314     -1.5443668887
C     -3.4151660173     -3.235319477     -0.456116875
C     -3.9358274213     -2.8280588555     0.808779565
C     -2.0330456009     -3.8462419073     1.9374642128
C     -3.1480028744     -3.0674146342     2.0023405242
C     0.0142427706     -4.3617218505     -1.5583811425
C     -1.2963221925     -3.8825278023     -1.6772439395
C     -2.1967735029     -4.0340755469     -0.5318258789
C     -1.6280341588     -4.4637545216     0.6937342998
C     2.0422304533     -1.8497770875     -3.3803881173
C     0.9111366485     -2.6642179585     -3.1417514872
C     -0.4128827633     -2.0950493016     -3.2697638537
C     -1.5223050865     -2.8065475627     -2.6461746464
C     -2.7608223641     -2.1715871368     -2.6123668403
C     1.1073425094     -3.7835587903     -2.2976407051
C     1.9352864252     -4.4085250526     -0.2262111279
C     0.5515650883     -4.7890118983     -0.2986572531
C     -0.235811521     -4.7363668472     0.8238337248
C     3.6099643918     -3.0131651121     0.779059462
C     2.4558160345     -3.8133247269     0.9477867895
C     3.2770764316     -2.0321411292     -2.6969542169
C     4.1222840809     -2.6623611387     -0.4969704432
C     3.3917424779     -3.0099839079     -1.6745247485
C     2.3166947144     -3.9167055352     -1.5241122858
C     4.7109725013     0.9724989843     -1.0213618358
C     4.7751047991     -1.3782432578     -0.3647763531
C     4.6739746895     -0.4035463539     -1.3914711622
C     3.8986715684     -0.7354036399     -2.5480065791
C     3.9031828496     0.7317405955     2.5410201112
C     4.7094255669     -0.9783042137     1.0135590301
C     4.6764362752     0.3978346472     1.3837059615
C     4.779102504     1.3722615676     0.3569057205
C     0.2676886914     -4.0737361875     2.0226532001
C     1.5442386088     -3.5050626641     2.0619922721
C     1.7177745052     -2.2868392207     2.840216778
C     3.9174682997     -1.9527213574     1.7047190286
C     2.980735523     -1.5684566119     2.6920539753
C     3.0602502178     -0.2346593819     3.1553321963


