98

 C     -2.8519146818     0.1293109124     -3.1424310975
C     -4.0245645296     -0.2029965836     -2.4572795706
C     -4.7828186681     0.7828982512     -1.7354581349
C     -2.4048436803     1.527595575     -3.1581806587
C     -3.1585938428     2.465517061     -2.4438759581
C     -4.3258369612     2.0938689475     -1.7001273585
C     -0.2483253303     0.8227803828     -3.9846170708
C     -1.0000333137     1.838289436     -3.4195739837
C     -0.2839645644     2.9124603649     -2.7478325936
C     -1.0800481181     3.7433729921     -1.8707210407
C     -2.4675068555     3.5113736673     -1.7187610392
C     -0.448355494     4.3753235016     -0.7874580166
C     1.1585185291     2.8431687984     -2.5739001799
C     1.9055779797     1.7776984401     -3.2070213541
C     1.1692199316     0.8333435826     -3.9699533316
C     -5.2078760672     0.8356987578     0.6803256746
C     -4.6128690693     2.1485003833     0.7346024704
C     -5.3085035076     0.1634191242     -0.5449732005
C     -4.2707227046     2.8006137368     -0.4377118955
C     -3.1140791649     3.6488172971     -0.450808386
C     -2.3286973389     3.8228608202     0.7227776174
C     -1.0563192287     4.343482837     0.513463519
C     -4.7401981849     -1.962755498     0.5410187745
C     -4.6074768487     -1.249760002     1.8076910934
C     -4.97966557     -1.2475103168     -0.6168470995
C     -4.7561631476     0.1157536248     1.8506319776
C     -3.7532240916     0.9150314032     2.5268700433
C     -0.0351098143     -0.9557692777     3.5595338642
C     -0.1176667941     0.4890111945     3.5449294445
C     -2.5911103639     0.3385973288     3.1081674821
C     -2.5175477899     -1.1151309765     3.1718702296
C     -3.5532590161     -1.8691527372     2.5562835856
C     -1.3789231516     2.4766745239     2.6471200654
C     -1.3880543282     1.1431763086     3.2054529739
C     2.350855303     3.1376662553     2.5171755145
C     1.1162284174     2.6196596989     3.0041723129
C     1.1030823208     1.2636276346     3.5347904112
C     2.3452321907     0.5753970492     3.6072658656
C     -2.5278384166     2.9458856193     1.8760986744
C     -3.7031087763     2.183003199     1.8796886217
C     -0.1183931724     3.1880193167     2.4980064613
C     -0.0222645619     4.1730544197     1.4832786782
C     -2.0319466811     -3.6879147545     2.0670107079
C     -3.7915749896     -3.0313083672     0.5312019078
C     -3.2322862423     -3.08446229     1.861637059
C     1.2575847335     -1.6069668049     3.3743272659
C     -1.2255779836     -1.7532326593     3.364167559
C     -1.058950321     -3.08946829     2.9336456629
C     2.4084115063     -0.8316233117     3.4316965592
C     -1.3510135604     -4.3216083367     0.9657113971
C     -1.7000997334     -3.9918091334     -0.3704028678
C     -2.95480861     -3.2881246666     -0.5901344386
C     -3.0905425253     -2.4248759429     -1.7547821829
C     -4.138557194     -1.4760608791     -1.7680957962
C     -0.7424107749     -2.98635583     -2.4999878447
C     -1.9486580847     -2.2001206286     -2.6396484216
C     -1.9002414479     -0.9438322531     -3.3641824268
C     -0.6995183105     -0.5693933539     -3.9705341414
C     0.0096031152     -4.4386212775     1.3692879077
C     0.9947334483     -4.5195129817     0.4181147166
C     0.6635333583     -4.3173457125     -0.9690499147
C     -0.628196315     -3.9080731885     -1.3614760659
C     0.4687638937     -2.5891433563     -3.1985108305
C     0.4306642444     -1.400076952     -3.9685755349
C     1.3929052224     -2.8946199081     2.7073251901
C     0.2197996431     -3.6220876588     2.5363386558
C     2.2839914185     -3.9653655013     0.6764033382
C     2.5161013373     -3.1427112821     1.7940464426
C     1.86281828     -3.8337811654     -1.6039980019
C     1.7933167905     -3.0091600506     -2.7379733162
C     2.9410388695     -2.1945594237     -2.9724362395
C     2.8066605864     -0.9141205923     -3.632576777
C     1.5878237065     -0.5358735443     -4.1037346341
C     2.8752793179     -3.65046442     -0.6061807243
C     3.8889565505     -2.6854829572     -0.7322752314
C     3.9711459727     -2.0479909045     -2.0022649235
C     4.3411600815     0.045088144     2.4908834461
C     3.6189555931     -1.1668508237     2.6821776334
C     3.6184695277     -2.1970558616     1.7221037618
C     5.0287401867     0.2519997497     1.2949876709
C     5.0342044709     -0.7648905044     0.2966123249
C     4.3486021004     -1.9927832646     0.472083126
C     4.2333741358     2.5770172114     1.225892839
C     3.5618444379     2.3684963987     2.5069745544
C     3.5755122508     1.1225776055     3.0882765647
C     4.9222089911     1.5458606823     0.6308220488
C     1.2112320614     4.3953492881     0.7954506518
C     3.399555114     3.429618425     0.4265602942
C     2.3751263454     3.9197727692     1.3123062977
C     4.4784552134     -0.6914232579     -2.0969082198
C     3.6698578754     0.0578509209     -3.0153462352
C     3.2265760885     1.3738582804     -2.7175479351
C     5.0054947053     -0.0826918676     -0.9920219897
C     4.7735642141     1.3230925826     -0.7820766006
C     3.8168061314     2.0391006098     -1.5625665907
C     3.099279397     3.1381194578     -0.9352304603
C     1.7965921214     3.5666415018     -1.4680340108
C     0.9671022119     4.3286232777     -0.6239466126


