98

 C     3.2193121964     -3.1820395048     -1.2378639669
C     4.2411994993     -2.6528442102     -0.4108467386
C     4.9155259833     -1.423962508     -0.7141519873
C     2.764575328     -2.3532124626     -2.35816397
C     3.455215668     -1.1610149891     -2.6384356209
C     4.5835835549     -0.7214481233     -1.8600424899
C     -0.7671710945     -3.5902612105     -2.4892955285
C     0.6594557289     -3.557326506     -2.4134008096
C     1.3937655484     -2.4380480046     -2.8241339381
C     -2.8451650091     -2.4164811051     -2.5584125706
C     -1.4929520665     -2.4753748654     -2.9542371595
C     0.6634238968     -1.2479872796     -3.2865902333
C     5.1081265146     0.6808328035     0.5355585795
C     4.9170737845     1.4226574282     -0.7061225615
C     5.1073776216     -0.6893656074     0.5316930558
C     4.5843650558     0.7269784013     -1.8559551707
C     3.4564779447     1.1721517215     -2.6318469843
C     4.2440858041     2.6505400419     -0.3958901808
C     3.2227689203     3.1854923862     -1.2199036133
C     2.7671336656     2.3634963272     -2.3448601552
C     -0.7766382536     -1.2438916867     -3.3210444712
C     1.361939945     0.0086995264     -3.3427767589
C     2.7603503398     0.0072499825     -3.0988819464
C     0.663319266     3.5701862406     -2.3933053289
C     1.3964139435     2.4524495735     -2.8103410363
C     -1.491415756     0.0102448265     -3.3430418652
C     -0.7752809144     1.2634651696     -3.3139716835
C     0.6647881432     1.2658035937     -3.2795037124
C     3.0682986138     3.3994412497     1.6080090524
C     4.4049073912     1.3871605091     1.5728340972
C     4.0838517316     2.6788536862     1.0409301381
C     2.2669514573     4.2666635595     0.8037761622
C     1.0862729343     4.402091314     -1.2959404026
C     2.29636486     4.1270915369     -0.6120285035
C     2.2254142015     2.7961186739     2.6091346414
C     2.305512329     1.4267483891     2.9093333897
C     3.4911511772     0.7128300189     2.4399593876
C     3.4903667875     -0.7303492615     2.4358905528
C     4.4033863104     -1.4007696401     1.5649685643
C     4.0809345616     -2.6890937971     1.0257907272
C     2.3039496988     -1.445617009     2.9012314668
C     2.2223619306     -2.8131830329     2.5933119382
C     3.0645914822     -3.4117628682     1.5887950423
C     0.9784804927     3.4923409316     2.5657526545
C     -2.6944313859     -1.4407929225     2.8436350461
C     -3.8136024617     -0.718198743     2.378527663
C     -0.2188025672     2.8610169208     2.9396458156
C     -0.2031797681     1.4266963677     3.2699445397
C     1.0572323161     0.7096658578     3.2459761013
C     1.0564503533     -0.7290877416     3.2419171704
C     -3.8128210175     0.7089452175     2.3825465389
C     0.9746735774     -3.5077944664     2.5460103482
C     -2.6928686801     1.4276924661     2.8517303295
C     -1.4541678812     0.7082751921     3.2490883065
C     -1.4549475334     -0.7249768466     3.2450450236
C     -0.2047448949     -1.4448661924     3.2618432952
C     -0.2219275439     -2.8772851074     2.9234578949
C     -2.6313490469     2.7673543558     2.4287033924
C     -1.3965199842     3.4844868102     2.4734936112
C     -0.0956794998     4.8418592867     -0.6274024643
C     -0.1619563984     4.8100215749     0.7979870883
C     1.0168765676     4.4476387485     1.487883166
C     -1.388145842     4.4329296368     1.4046458414
C     1.0814973319     -4.3958681675     -1.3207565549
C     2.2918833439     -4.1260426739     -0.6353032512
C     2.262310906     -4.2735662133     0.7796901579
C     1.0120348759     -4.4570345869     1.462772052
C     -1.3929699718     -4.4392476578     1.3796245088
C     -0.1671900004     -4.8142444614     0.7708448418
C     -0.100938468     -4.8381173033     -0.6547019331
C     -2.6343646477     -2.7781170419     2.4130569542
C     -1.4003173614     -3.4968343539     2.4538064799
C     -2.587410556     -4.2086975418     0.6076172661
C     -2.5044779496     -4.1511071466     -0.8150300136
C     -1.2490509232     -4.4150426512     -1.4226903804
C     -3.3507485907     -3.2166516534     -1.4856850477
C     -3.4081453508     -3.2642598451     1.3069706105
C     -4.3188894829     -2.4005235653     0.6309320467
C     -4.3320434112     -2.4274814198     -0.7893424032
C     -4.9220829793     0.0051685315     -0.8803755141
C     -4.5265007618     -1.2030058014     -1.5183494339
C     -4.5251871615     1.2164869846     -1.5115306388
C     -5.0051997353     0.0011986917     0.5423209142
C     -4.6135269805     -1.1707196891     1.2794624916
C     -3.4045998546     3.2605649759     1.3253674654
C     -4.3294042583     2.4366291481     -0.7756285261
C     -4.3162758295     2.4016437962     0.6444739123
C     -4.6122444872     1.1685197877     1.2860564378
C     -1.2442523546     4.4243686659     -1.3977626677
C     -3.3472577539     3.2286442975     -1.4675093537
C     -2.4999644073     4.1583761647     -0.791597597
C     -2.5828364195     4.2080324824     0.6313533624
C     -3.5628516293     -1.1824254851     -2.583186791
C     -2.9415555599     0.0100720839     -3.0020971108
C     -3.5615604638     1.2008659904     -2.5764657163
C     -2.8425327418     2.4339799942     -2.5447324343
C     -1.4902595275     2.4936344095     -2.940226103
C     -0.7632663657     3.6050966199     -2.4690068009


