98

 C     2.5496289305     -2.2197139407     -2.9641580557
C     3.1829291798     -0.987129936     -2.823444832
C     4.277049111     -0.8713239607     -1.8386006801
C     4.6541890662     0.4452191131     -1.3497719912
C     5.1252427727     0.6010694965     -0.0160654565
C     4.0274715562     1.5709369697     -1.9418396399
C     2.9485174297     1.4265767633     -2.9101409719
C     2.4191922612     0.1832067229     -3.2549098832
C     1.1824041903     -2.335334919     -3.4202254262
C     0.3619364998     -1.2126914718     -3.6716431272
C     3.8067450699     2.7779055601     -1.2352039628
C     4.0488536342     2.841387946     0.175700223
C     4.715909615     1.7468613398     0.7678150815
C     3.1028510921     3.5380704782     0.9818406546
C     2.6531370076     3.4283654876     -1.8101372243
C     0.4430371252     4.3369856691     -1.4762592012
C     1.776980844     4.2122279609     -1.0220572766
C     1.9891408693     4.2415594817     0.3894721588
C     -1.5837146197     -2.6160533631     -3.0913323858
C     -1.0849024775     -1.3638542098     -3.5377857168
C     0.9822240101     0.0937955644     -3.6077898665
C     -1.3292828415     1.0965697239     -3.4159930465
C     0.1356490483     1.2469173651     -3.5191989079
C     0.7474146002     2.5282215438     -3.1522902696
C     2.1330946802     2.5851704565     -2.8483654928
C     -0.0381676509     3.5485617026     -2.5814266528
C     2.6558160314     2.9811217561     2.2107852807
C     3.1945015673     1.7865967237     2.7354212467
C     4.3527379195     1.2764350282     2.0815076516
C     4.7014301725     -0.1158276377     2.1596422662
C     3.9071290445     -0.9745352742     2.8959800389
C     1.2595126283     3.3094823463     2.370107751
C     0.3448141124     2.425078525     2.9446389101
C     0.8573250302     1.1588367376     3.4795708487
C     2.284357483     0.872761199     3.4120443003
C     2.7044605856     -0.4763208819     3.5209109675
C     -1.4952034844     0.3288550653     3.5836137621
C     -0.0695864845     0.0838118486     3.6593000214
C     0.3928229378     -1.2831865797     3.5470058119
C     1.7534934018     -1.5279187545     3.4845207435
C     -2.3423525668     -0.7911059688     3.5375845299
C     -2.0049647209     1.6049671487     3.1026765053
C     -1.0780200633     2.5943044022     2.616283267
C     -3.3529816751     1.668595583     2.6793786394
C     -0.648740885     4.4666053594     -0.5611195303
C     -0.4599057479     4.2123836318     0.8190331222
C     0.8782276732     4.1624590337     1.2764379159
C     -2.8012071893     3.3427682297     0.9612920624
C     -1.4844761903     3.4927449186     1.5659812585
C     -3.7371293621     2.5126849977     1.5888910901
C     4.9335504996     -1.797121605     0.3837441419
C     4.1574255516     -2.7311857415     1.1886354387
C     5.208347496     -0.5295234565     0.8648684084
C     3.6358659025     -2.3149917092     2.4055776001
C     2.283747707     -2.6536674995     2.7383523124
C     1.4528688148     -3.4133324656     1.8887375251
C     -0.4677275924     -2.326348189     3.0346316318
C     -1.8294607227     -2.091910992     3.1480263286
C     2.7899982845     -3.2975874928     -2.0368661418
C     4.5422108266     -1.9777650195     -0.9939930544
C     3.701535405     -3.1432100773     -1.030576034
C     0.0109104393     -3.2933699778     2.0698163669
C     2.0056199814     -3.8855542902     0.6298957826
C     3.3467119185     -3.5321147678     0.3159416638
C     1.5440458151     -3.959881172     -1.7802058266
C     -0.9089424519     -3.787978891     1.0816160283
C     1.0851275112     -4.1807425748     -0.4580305905
C     -2.7753534688     -2.7380042151     2.3169007154
C     -2.3299092764     -3.4782728684     1.1959440647
C     -0.3618183443     -4.1916862808     -0.2182994548
C     -1.2133067428     -4.0950765729     -1.3349397902
C     -0.7054962357     -3.6194233478     -2.5978570421
C     0.6413150443     -3.5001832176     -2.7936134811
C     -5.2500574899     -0.5135820722     -0.6717786319
C     -4.600257478     -1.7095961394     -1.1463704406
C     -3.6984558376     -1.6590995692     -2.2479741414
C     -2.7988854262     -2.7243263581     -2.3340139524
C     -4.9749926439     0.6817261199     -1.3120357339
C     -2.5590301226     -3.6057260737     -1.2343340095
C     -3.1758044406     -3.3926827822     0.0083120203
C     -4.3194021667     -2.5452260181     -0.0137807822
C     -3.9728622455     -1.9179791811     2.303747947
C     -5.3427524275     -0.5700892192     0.7697710732
C     -4.7581979878     -1.835417074     1.1680628046
C     -4.8005843506     1.8871493054     -0.534653392
C     -4.801102958     1.8326651807     0.8532412213
C     -5.0837961824     0.5841142088     1.5191047748
C     -4.2114014553     0.5056737596     2.6691521787
C     -3.6933738487     -0.7170602443     3.0666236331
C     -1.8327638074     3.9826421465     -1.2111700873
C     -3.8431786598     2.7221260826     -1.2058461292
C     -2.9453498167     3.5347259518     -0.4824690931
C     -3.3030151797     -0.3851816455     -2.847131248
C     -1.9384495738     -0.2046147601     -3.3875650856
C     -4.0169698375     0.7388646827     -2.4055565759
C     -3.3924050158     2.0228733485     -2.3834393572
C     -2.1017059387     2.2197968511     -2.9162406968
C     -1.4425926934     3.3750409424     -2.4350194007


