98

 C     -1.7134502778     -3.8909412973     -1.8484459539
C     -2.4909131274     -3.7305928447     -0.6911112856
C     -3.6384353211     -2.8088171547     -0.744172455
C     -4.1361321973     -2.2118226042     0.4927799219
C     -4.7595678571     -0.9328896395     0.4783927646
C     -3.5022522555     -2.5595481449     1.6996602646
C     -0.4011909979     -4.3909750568     0.6168476258
C     -1.8381867522     -4.0472467366     0.5769164901
C     -2.4264900449     -3.5258528209     1.7455159291
C     0.2988227     -4.2119946537     1.8206983942
C     -0.3169149112     -3.5602149492     2.9402305496
C     -1.6370541743     -3.2025093278     2.8896256879
C     0.4020109464     -4.3949734197     -0.5986579928
C     1.839170697     -4.0516900714     -0.5608761663
C     -0.2979182981     -4.2232001565     -1.8036077325
C     2.4277221507     -3.5379056597     -1.7327167113
C     -3.2724416423     -1.5926602593     2.7321024775
C     -3.684677318     -0.2581368356     2.6168916883
C     -4.5760678766     0.009345197     1.5356569173
C     -4.6323688931     1.3256169194     0.9581181945
C     -3.9480097696     2.3478000499     1.5416339569
C     -2.0508850748     -1.9252782797     3.405333844
C     0.2908021622     -1.3376853252     3.8702234391
C     -1.1082001272     -0.9396251182     3.7745054297
C     -1.4655296281     0.465404342     3.6087262236
C     -2.8029303458     0.7865433791     3.1351806918
C     -3.0573463544     2.1006842362     2.6671518664
C     2.6487977725     -0.7492598692     3.4613168944
C     1.3377681529     -0.3257724239     3.7736454156
C     -0.4088080162     1.4652770083     3.5375576573
C     0.6277012983     -2.6794581621     3.5588944332
C     -2.2557587143     3.8275691324     -1.3756073433
C     -3.320914173     3.2149279277     -0.7106023396
C     -3.3825236635     3.3853901137     0.7202089198
C     -2.2802600757     3.9127881556     1.4261056702
C     0.0514292578     4.5089043721     1.3925147596
C     -1.207022155     4.5513565346     0.7540804889
C     -1.2548492083     4.577878813     -0.6790196241
C     0.998739953     1.0649351696     3.5523856101
C     -0.7375122034     2.7913031368     3.0571572052
C     -2.0496144828     3.0737371713     2.611958029
C     2.009109333     1.9410324812     2.9827172024
C     1.6150648419     3.2072260801     2.4893989674
C     0.2816285711     3.6331803735     2.5348716628
C     -3.9167082389     2.0316163254     -1.3249203595
C     -4.7013168793     1.2065116402     -0.4965171731
C     -4.8799912885     -0.1844785632     -0.7600314124
C     -3.2761663538     1.4184031047     -2.5002976258
C     -3.589300898     0.0875560259     -2.802428197
C     -4.383507879     -0.7311510478     -1.9176225777
C     -0.2769630413     3.6173392332     -2.5668975237
C     -1.6106020007     3.1923158497     -2.5187537362
C     -2.0052549145     1.9232471398     -3.0041305608
C     2.0540114931     3.0563053646     -2.6404733944
C     0.7417718161     2.7717156609     -3.0838924364
C     -0.9953063945     1.0431146447     -3.5682987452
C     1.2599737975     4.5814143842     0.6410180724
C     1.2121342928     4.5459368887     -0.7918887704
C     -0.0463411285     4.5000844343     -1.4300409684
C     2.2850634155     3.9026573688     -1.4598985012
C     -1.9016173755     -3.0393795185     -2.9905470083
C     -3.8585593377     -2.0767671887     -1.9353205464
C     -2.9088505735     -2.1106818015     -3.0021917916
C     0.3181291469     -3.578740522     -2.9271978743
C     -0.6260661107     -2.7014241978     -3.5513687671
C     1.6384406056     -3.2213567398     -2.878829786
C     0.4124320102     1.4428663124     -3.5559780393
C     -1.3350020279     -0.3487881693     -3.7808470794
C     -2.6462346594     -0.7696782124     -3.4658734187
C     3.0612721301     2.0824408399     -2.6895669868
C     2.8062284988     0.7655181296     -3.1493578948
C     1.4686724854     0.4420610083     -3.6208779934
C     1.1106680387     -0.9638079881     -3.7778623483
C     -0.2885236976     -1.3617867598     -3.8710907227
C     2.0528818394     -1.9475807042     -3.4025265932
C     3.9520605562     2.3361735119     -1.5656216174
C     4.6359278416     1.3173360901     -0.9757175127
C     4.5790009943     -0.0024995305     -1.5450006177
C     3.6874783218     -0.2763184801     -2.6245378403
C     3.2745980107     -1.6113372591     -2.7313882505
C     2.2605236536     3.8350003403     1.3422927555
C     3.3253801752     3.2176928198     0.6811389325
C     3.3870736603     3.3791597172     -0.7507114209
C     4.3860859013     -0.7212604456     1.9128532973
C     3.5922753792     0.1033533771     2.7925162994
C     3.2797771131     1.4324313047     2.4820536007
C     4.8828241506     -0.1820861482     0.7518594611
C     4.704813507     1.2073093235     0.479637191
C     3.9206094482     2.0379637835     1.302857036
C     1.9030895516     -3.0215335925     3.0002048512
C     3.8604931528     -2.0664886887     1.9389757275
C     2.9107715337     -2.093266101     3.0060394745
C     3.5039474417     -2.5718483929     -1.6929111666
C     4.7620499555     -0.9381818083     -0.4818539211
C     4.1379983974     -2.2168792226     -0.4882316703
C     3.6400176753     -2.8058784234     0.7524356509
C     2.4920522642     -3.7274160584     0.7051440462
C     1.714512644     -3.8801388416     1.8634587851


