98

 C     3.4420089887     -3.0284971661     -0.8081780576
C     2.2936600044     -3.7782420809     -1.1492313424
C     1.6525677485     -4.4736783369     -0.090373724
C     0.2533609596     -4.7900899338     -0.1644853514
C     -0.4413308684     -4.5746816787     -1.3244483412
C     3.818488454     -1.8603111049     -1.5557078646
C     3.0302532338     -1.3574539309     -2.6089485226
C     1.8313628988     -2.1091920652     -2.992551382
C     1.5131807397     -3.3471565585     -2.308862252
C     0.1931792453     -3.8425144244     -2.4223436606
C     0.9668083546     -0.0736153366     -4.0375252216
C     0.7662912771     -1.4197004649     -3.6956064267
C     3.6661177365     2.3302630073     -2.0868228612
C     3.9810505793     0.9478940208     -2.0861620638
C     3.1831391493     0.0563614089     -2.9364545421
C     2.1731034142     0.633177192     -3.730611235
C     -3.1323238829     -2.5847683824     -2.5060382481
C     -1.8240099487     -4.2319622453     -1.2647475884
C     -2.0958303038     -3.4698910173     -2.4623907254
C     -0.6105515846     -1.871343881     -3.667889371
C     -0.8390311736     -3.1437184577     -3.1022958504
C     -2.9650857816     -1.3135325892     -3.16483006
C     -1.7135149663     -0.9144604174     -3.6916738361
C     -3.981566192     -2.4111352088     -1.3572156395
C     -3.6236244719     -3.0149858122     -0.1136449803
C     -2.4680815877     -3.904981082     -0.0427557517
C     -1.6636549518     -3.9597799854     1.1830842142
C     -0.3669582376     -4.4910888788     1.0997790658
C     -3.9851069668     -2.3043532802     1.0533386228
C     -4.4857193578     -1.078301194     -1.4173749632
C     -4.7478131664     1.0451063628     -0.2786327802
C     -4.8482227598     -0.3764256531     -0.2436515405
C     -4.639119319     -1.0363132594     0.9998201836
C     -0.1222858629     0.8675866251     -4.0585451194
C     -1.4396050045     0.5046558935     -3.7403633378
C     -2.2793509396     1.4839020804     -3.0695201443
C     -3.5133053224     0.9976271753     -2.4492090738
C     -3.8238141037     -0.3910585481     -2.5196725749
C     -4.1039636132     1.7137158494     -1.394350812
C     -3.1289618378     -2.305313824     2.220968567
C     -1.9300771037     -3.0260026543     2.281451467
C     -0.8433738954     -2.4961517395     3.10347541
C     0.4687088948     -3.0861577601     2.9690234834
C     0.6855609421     -4.0787418547     1.9849187857
C     1.6139203748     -2.3593286555     3.3918399809
C     -3.2954238168     -1.0590123673     2.8983242662
C     -2.2218304094     0.9566004603     3.6697923843
C     -2.2084780512     -0.4643289065     3.57685968
C     -0.9583386695     -1.1660705545     3.6718881122
C     0.250130417     -0.378639967     3.9197278925
C     1.4832616831     -1.003177379     3.8419806307
C     -4.4597388512     1.796785205     0.885913837
C     -4.1472631235     1.136621989     2.1200886014
C     -4.2441936442     -0.2727748453     2.162391756
C     -3.1557755207     1.7400619375     2.9579967303
C     2.8794065607     -2.4748672457     2.7552541993
C     3.033905762     -3.3008269152     1.6124915187
C     1.9385975723     -4.1434714923     1.272522935
C     3.8462906408     -2.8335873046     0.5419271361
C     3.5421374096     -1.1852848324     2.8290314098
C     4.4963064667     0.6598484084     1.5808778102
C     4.3975362517     -0.7352317666     1.7720698003
C     4.5365715616     -1.5615327871     0.6220359506
C     -0.9910554762     1.7124510375     3.7541426461
C     0.2440793261     1.098818091     3.8025335604
C     1.4223240232     1.833071947     3.3108340719
C     2.6617944249     1.1053769671     3.1993171498
C     2.6904509654     -0.2841502243     3.5088900928
C     3.6713110996     1.5777605092     2.3297320398
C     4.5694247151     -0.9896709213     -0.6813022806
C     4.7177091108     1.2239164715     0.2763620388
C     4.6137482127     0.4122254487     -0.8889226718
C     4.1775193364     2.5493842086     0.2916229969
C     0.5314533192     4.6043506712     0.2528941156
C     1.8724667218     4.2057991601     0.395342803
C     2.5704297427     3.9892683835     -0.8260955262
C     3.7145174005     3.1101424681     -0.8744589178
C     -1.1832224509     2.9748301975     3.0924892369
C     -0.4288120789     4.3959341609     1.3040062717
C     -0.0951342084     3.6158691802     2.435971402
C     1.2425250047     3.0577951069     2.5658895424
C     2.2641323118     3.4769603372     1.6040233348
C     3.4599848133     2.7440776072     1.5393536892
C     -3.7415394589     2.9942449251     0.4873243193
C     -1.7337604494     4.3284255367     0.716226662
C     -2.7866812641     3.6050388158     1.3358939514
C     -2.5069970775     2.9920546674     2.5872053766
C     0.3957314379     2.1580187312     -3.7562879888
C     -0.3318951552     3.075185709     -2.9823595314
C     -1.7123132759     2.7430197435     -2.6427979507
C     -1.5498806437     4.292242335     -0.7079844518
C     -2.3415680825     3.4534920982     -1.5273027961
C     -3.5128566248     2.9223259909     -0.9186665135
C     1.8643245972     3.8599744895     -2.0673493263
C     2.5597655622     2.8536056863     -2.8391710373
C     1.8375206375     2.0255584315     -3.6562549891
C     -0.1588940388     4.5193608401     -0.988150485
C     0.4544454917     3.9863294021     -2.1380700202


