98

 C     -2.7693610807     -3.883759451     0.2065716026
C     -3.6461386862     -2.9723593146     0.8348922356
C     -4.3131169177     -2.0372054688     0.0064563937
C     -3.3457177384     -2.5841265701     2.1641736563
C     -2.1311561961     -3.0131204227     2.7900609284
C     -1.2119088347     -3.8673704561     2.1472356342
C     -1.6364716153     -4.39145227     0.8809488834
C     -3.6094185791     -1.2378053324     2.6063771615
C     -4.2123959925     -0.2790799466     1.7674797543
C     -4.6832612295     -0.756475733     0.503426595
C     -4.7415330708     0.1240275798     -0.6329555521
C     -4.520586791     1.4573003065     -0.4683431896
C     -2.5868121072     -0.8603834914     3.5261991054
C     -0.8718795018     0.6507955616     4.1903129794
C     -2.1589123855     0.4881897934     3.6574064031
C     -2.7400247437     1.5301079929     2.8075188108
C     -3.8094740894     1.1347348777     1.9038467293
C     -4.0950686657     1.9876983073     0.8224505471
C     1.1135165185     -4.2592487178     1.4563412909
C     0.2258732621     -3.6877769284     2.3990564065
C     0.7086399664     -2.5776904212     3.2046941352
C     -0.287090283     -1.7441142411     3.8600979456
C     -1.6687378522     -1.9571950661     3.6410313726
C     0.0601533391     -0.4438682042     4.2720772628
C     -2.2474695684     3.995917093     -1.4743162359
C     -3.9043554084     2.2115348221     -1.518562147
C     -3.3077472401     3.3579133333     -0.8874323399
C     -1.2106052753     4.553315896     -0.6513703553
C     0.0368806762     4.4624120429     1.3809461034
C     -1.2201411744     4.367176627     0.7585945542
C     -0.1282006426     1.8459268408     3.9712216267
C     -0.6598422451     2.8942132796     3.1844180298
C     -1.9764046402     2.7356547209     2.5551199475
C     -2.2662002866     3.5503750875     1.3849781129
C     -3.3396072047     3.1593399256     0.561456443
C     0.3052353773     3.7586985274     2.6112501885
C     -1.678367648     3.4717103464     -2.6855343196
C     -2.1772560334     2.2647438753     -3.2471510344
C     -3.3067827173     1.5768784632     -2.6387827363
C     -3.4078331276     0.1132304158     -2.7403068155
C     -4.2183468458     -0.5534771568     -1.7934878066
C     -1.2463728101     1.4987528137     -3.9678844809
C     -0.2712982197     3.7470932437     -2.6270222496
C     3.3692461815     3.1326474738     -0.574071789
C     2.2986086171     3.5269683598     -1.399628064
C     2.0030205826     2.708202701     -2.5654841213
C     0.6876190009     2.8728186599     -3.1956534464
C     0.1485771457     1.8242499528     -3.9770203947
C     0.0020496387     4.4552879204     -1.4003870373
C     1.2501868943     4.5479503058     0.6314478709
C     1.2583768621     4.3544026607     -0.7775255102
C     -1.3571784597     0.0667308568     -4.0630364339
C     -2.358950567     -0.6635583234     -3.3912721574
C     -2.0504905301     -2.0364930788     -2.9756677127
C     -2.9092896107     -2.6475565399     -1.9831354683
C     -3.9618671588     -1.8938355003     -1.3974472922
C     -2.4226982791     -3.7337406312     -1.2154312182
C     -0.0559482178     -0.465688606     -4.2659835052
C     1.6622121698     -1.9879069593     -3.6270449941
C     0.2820955593     -1.7662005523     -3.847245858
C     -0.7194959626     -2.5892808909     -3.1875244594
C     -0.2445754794     -3.6985376003     -2.376089792
C     -1.1362098526     -4.2588016704     -1.4304387542
C     4.1164089345     1.9543478968     -0.8289636371
C     3.8247823851     1.0978003163     -1.9059116373
C     2.7581008451     1.4960007554     -2.8116086862
C     2.1696493872     0.4538206848     -3.6561031812
C     0.8837916629     0.6227558839     -4.1898747481
C     2.5880120712     -0.8970426548     -3.5178941041
C     2.1171638334     -3.0426316035     -2.7705666721
C     1.19190829     -3.8869861129     -2.1233158633
C     1.6127828461     -4.4074651218     -0.854314059
C     0.6458653111     -4.7468097616     0.1655813272
C     -0.6720043027     -4.7429562272     -0.1371443405
C     3.3347488648     -2.6189967425     -2.1469032556
C     4.3060357295     -2.0676960588     0.0079478407
C     3.6324420466     -3.0024160705     -0.8156145238
C     2.7492544567     -3.9043121594     -0.1825785692
C     4.5382150873     1.4276835113     0.4645731598
C     4.7497289493     0.0937572371     0.6361200502
C     4.6852135638     -0.7922308857     -0.4956642822
C     4.217712777     -0.318096925     -1.7622033566
C     3.6079586865     -1.2768911207     -2.5960995408
C     2.2831147649     3.987546674     1.4573016772
C     3.9273194009     2.1917107072     1.5108337014
C     3.3388362687     3.338994167     0.8737552025
C     1.2644140271     1.510514805     3.9637757744
C     4.2217727787     -0.5739859449     1.8001479958
C     3.4160009727     0.1033584992     2.7434764429
C     3.3252759884     1.5671328126     2.6343140136
C     2.2006680983     2.2661390361     3.2390865008
C     1.7103257329     3.4736761839     2.6712118319
C     2.4036822844     -3.744433455     1.238634825
C     3.9558326968     -1.914536998     1.4111022667
C     2.8979584152     -2.6577267376     2.0006739164
C     2.0435122193     -2.0354363559     2.989982486
C     2.3616972967     -0.6625906716     3.3984765158
C     1.3651074044     0.0782613176     4.0664034895


