98

 C     3.2796361971     -3.0724476769     1.9505473995
C     4.1978888137     -2.058488117     1.799753786
C     3.9772811086     -0.8007543758     2.4590768284
C     3.1625290533     1.8791269186     2.5943671614
C     0.9576549495     1.2470315602     3.4406448331
C     2.3372877904     0.9016441102     3.194439933
C     2.7658765864     -0.4981783408     3.1314302421
C     -1.3413675684     0.4659688567     3.7897793242
C     0.0159901922     0.1561044598     3.7202734966
C     0.3895593003     -1.2451264208     3.5039650768
C     1.7761512355     -1.561268297     3.2643982353
C     2.0868724843     -2.8357720658     2.7258846253
C     4.3988214933     -2.5391115076     -0.5976897021
C     3.4555745905     -3.6244782462     -0.4354298497
C     4.7999532498     -1.7968468033     0.4965538243
C     2.93347369     -3.9171561361     0.8276340212
C     1.5645871088     -4.2741115322     0.9571177055
C     2.573374855     -3.5999093099     -1.5585121531
C     1.2223692782     -3.9488663087     -1.4542314613
C     0.7125895361     -4.3704678415     -0.1532919818
C     -2.5716146367     -3.6105858084     1.5264112677
C     -1.2209646799     -3.9600098031     1.4191237802
C     -0.7116116981     -4.3708959636     0.1145978413
C     -1.5635084394     -4.2641164798     -0.9949400994
C     -2.3645823532     -0.5023115561     3.5196367315
C     -2.0284816984     -1.8245909112     3.1798434402
C     -0.6340923372     -2.2089719909     3.1627638485
C     -0.2837321694     -3.379900728     2.3788334861
C     1.0588393518     -3.6647171125     2.1893941606
C     -2.9810860861     -2.5300118577     2.4079465855
C     3.4796022927     0.1935391869     -2.929614881
C     4.2939266675     -0.4427785388     -1.9678754585
C     4.1055918487     -1.8516635216     -1.8380196456
C     2.9839540016     -2.5121933651     -2.4307024015
C     -1.0571269898     -3.6446309724     -2.2219134693
C     0.285733172     -3.3595558107     -2.4088975368
C     0.6372932987     -2.1822685968     -3.1827078194
C     2.0320737531     -1.7991774645     -3.1964895653
C     2.3695239707     -0.4743655579     -3.5248887312
C     4.75871563     0.3448816759     -0.8192168824
C     5.0085662526     -0.3701205667     0.379863331
C     3.1576218705     1.5972547051     -2.8521530365
C     3.6205635435     2.4007115389     -1.7893478318
C     4.3987583433     1.7645211165     -0.7212768777
C     2.8262864744     3.5508129051     -1.5083493533
C     1.8587343552     1.7858491783     -3.4188367695
C     -0.446559286     2.5773701589     -3.0317658214
C     0.9905686264     2.8121328106     -3.0043136017
C     1.5545740389     3.7644010405     -2.1182060987
C     -2.6281706524     3.1210693897     -2.0680510771
C     -1.288112162     3.4761170674     -2.2541539811
C     -2.0843072113     -2.8100442345     -2.7512425547
C     -1.7722792342     -1.531261455     -3.278751867
C     -0.3853695666     -1.2144752644     -3.5155943095
C     -0.0103741058     0.1881846597     -3.7198383987
C     1.3472969039     0.4972521058     -3.7866744033
C     -2.7609179973     -0.4683475053     -3.1366387776
C     -2.3309078795     0.9315321169     -3.1875945324
C     -0.9509255145     1.277631436     -3.4308227679
C     -3.1551571711     1.9046422237     -2.5791168703
C     2.7142562786     4.060395336     -0.1584404079
C     3.3546180493     3.4085125873     0.8580962667
C     4.2714215476     2.3296479096     0.5740155078
C     4.2637424624     1.5008323906     1.7365078157
C     4.6444866522     0.1916974914     1.6525718609
C     1.3921851005     4.5774713176     0.0592968702
C     0.7027397562     4.3502471297     1.2859791857
C     -0.6915990105     4.461536978     1.2189525783
C     -0.6928561354     4.3618924443     -1.2494940606
C     0.7015938531     4.4711780831     -1.1815158872
C     -1.3820758843     4.5792355218     -0.0208914413
C     1.2970863613     3.4552355008     2.2829701776
C     2.6367831361     3.1004463711     2.0938070629
C     -1.5452987277     3.7475838743     2.1495198258
C     -0.9822679668     2.7871366019     3.0273886511
C     0.4546167095     2.5506783622     3.0528068405
C     -1.8514855729     1.7582083851     3.433060378
C     -2.8172283835     3.540559613     1.5378552076
C     -4.3915119494     1.7627134268     0.7354254862
C     -3.6126742748     2.3888874598     1.8089356044
C     -3.1505594969     1.5758292863     2.8647728664
C     -5.0034905745     -0.361737317     -0.3840657988
C     -4.7529164614     0.3426483749     0.8211287118
C     -4.6388349834     0.21066063     -1.6518888055
C     -4.2567529388     1.5200794378     -1.7245387384
C     -4.2635926789     2.3388507924     -0.554947848
C     -3.3456906681     3.4191921395     -0.8297257221
C     -2.7046783926     4.0616531602     0.1923836536
C     -3.2773164733     -3.0521805586     -1.9779764735
C     -4.1945359582     -2.0386253328     -1.8184538669
C     -3.9726344816     -0.7754793598     -2.4669188789
C     -4.3959754823     -2.539692673     0.5747647543
C     -3.4538317261     -3.6245743916     0.4031599539
C     -2.9320283478     -3.906895594     -0.862381818
C     -4.7963313011     -1.7876134636     -0.5130440217
C     -3.4739710311     0.1718252905     2.9301340563
C     -4.2889427502     -0.455353251     1.962957022
C     -4.1020447265     -1.8632551314     1.8209730342


