98

 C     2.7343332187     1.8206458112     2.742483099
C     3.9697370634     1.6592080428     2.1028612371
C     4.6678826519     0.4043952019     2.1027546051
C     2.1353727939     0.6606300446     3.4075203254
C     2.8147498973     -0.5606952309     3.3664415455
C     4.0824058622     -0.6990340369     2.7159857519
C     -1.3715972024     1.8806958672     3.3609068732
C     0.0236113284     1.8247352969     3.5260893463
C     0.7062677588     0.6076381868     3.6360766665
C     -2.1552186587     0.7178730456     3.2645920565
C     -1.4819089037     -0.5664068199     3.3639949743
C     -0.0551421715     -0.6180546297     3.5357437614
C     0.6717402856     -1.8397140957     3.1988048906
C     2.0753770264     -1.7906804796     3.1907271782
C     -3.5277072885     -1.6340276406     2.5279345993
C     -2.1769532649     -1.7658125927     2.9199635452
C     -4.6588667754     1.9112675758     0.7513843272
C     -3.7824488619     2.056535042     1.8513360176
C     -3.4600844095     0.8530579993     2.6278031013
C     -4.1522778241     -0.3344852936     2.3514612542
C     5.3392137348     -0.9856849774     0.1998342359
C     4.7229442372     -2.1305464786     0.8384484634
C     5.3300639131     0.2572163695     0.8229527867
C     4.1158619957     -1.9962446336     2.0791969681
C     2.0760086741     -3.9732367295     -0.97585915
C     4.0586301973     -2.9206202737     -0.1724959355
C     2.8837197906     -3.6645300853     0.1293784993
C     2.8592592902     -2.6599488736     2.3638150815
C     0.8095413032     -3.7272809516     1.5785856807
C     2.2335836941     -3.5119463202     1.4403497046
C     -1.2849145825     -4.3913054225     0.475052948
C     0.1146069858     -4.3593446365     0.4770133741
C     0.7254635819     -4.3872575436     -0.8035554301
C     -2.0546092059     -3.8110386502     1.5468599697
C     0.0300167027     -2.921606252     2.4983187679
C     -1.421000588     -2.924805035     2.445807903
C     4.8428197225     1.3542493015     -1.3319867303
C     4.7592518504     0.0464112035     -1.9593093011
C     5.062413515     1.4585119409     0.0509993371
C     5.0161565991     -1.0828944367     -1.2187285227
C     4.2092591952     -2.2563043047     -1.434727807
C     3.1445179186     -2.2461463402     -2.3848524634
C     2.1650398151     -3.2290100539     -2.2019019817
C     2.0226496796     3.6678856517     -1.7949182149
C     3.196637072     3.1756091034     -1.1998579163
C     3.8827588649     2.1920863997     -1.943121666
C     2.7489920731     -1.0188064118     -3.0542513749
C     3.6398564264     0.078199192     -2.8945066885
C     3.1530674438     1.3914286192     -2.9329743977
C     1.3410997325     -0.7710482577     -3.3624763405
C     1.8048048911     1.6633791607     -3.2623682711
C     1.3491063621     2.9324199183     -2.8744776964
C     3.2867525273     3.195443911     0.2521534952
C     4.2372366243     2.3296631368     0.8399608295
C     1.0520453226     4.3443489555     -1.052296584
C     1.035405758     4.2871272152     0.3863291599
C     2.1324732747     3.6118572182     1.0345683518
C     1.8863070994     2.9201928713     2.3020060641
C     0.611926845     2.9771685256     2.8608190849
C     -0.1806153482     4.237263176     -1.8033050416
C     -1.3793607239     4.3781606508     -1.1948393844
C     -1.4550298166     4.5309771046     0.251926444
C     -0.2705690472     4.3802701328     1.0317549153
C     -0.4520980482     3.7259075212     2.2749789803
C     0.8441262267     -3.0821484363     -2.7128042429
C     0.3739232879     -1.8398377521     -3.2013608575
C     0.8485559245     0.5889384796     -3.4621827989
C     -0.5732147543     0.8804335793     -3.3683211577
C     -1.0072919013     2.2363237262     -3.07592754
C     -0.0165402753     3.2316573773     -2.836377682
C     -1.6874780955     3.0904860139     2.6214270959
C     -2.7000515498     3.9775982306     0.6440232106
C     -2.83013785     3.1674713962     1.8140392085
C     -3.4002778894     3.5585938249     -0.564185923
C     -4.397352774     1.5937951528     -1.5616768411
C     -4.3347802265     2.569534003     -0.5064929604
C     -1.9475679877     -2.6127733624     -2.6147711734
C     -1.0608801829     -1.5681558919     -3.1364497916
C     -1.5374250814     -0.2135265314     -3.2303397937
C     -3.2807914762     -2.2960653305     -2.3306549744
C     -3.7717085927     -0.9675259777     -2.4860391378
C     -2.9197077488     0.0945213119     -2.874253593
C     -3.3070176331     1.4426384503     -2.46623546
C     -2.3364827977     2.5066095261     -2.5408933014
C     -2.5051132269     3.6230474423     -1.6713363859
C     -3.3512022936     -3.7964352378     -0.3802044336
C     -2.0431289772     -4.2497267601     -0.7338542429
C     -1.390839798     -3.7534121699     -1.8960867316
C     -0.0124059345     -3.9415349925     -1.9370850161
C     -4.0094487041     -2.9241061031     -1.2254034848
C     -5.0017325804     -1.7723608327     0.7099866434
C     -4.1270976274     -2.5329633893     1.5732229664
C     -3.3764524331     -3.5718282676     1.0555276359
C     -4.9160216599     -1.9472982626     -0.6790377665
C     -5.1002681764     0.466539406     -1.0255731062
C     -5.2434404669     0.6546978605     0.4133607898
C     -5.0795188996     -0.436068246     1.254471355
C     -4.8561957237     -0.7851301428     -1.5372558119


