98

 C     4.4499851674     0.904054475     1.1660845646
C     4.2256585976     -0.4222018896     1.5713441504
C     4.3516818177     -1.4910499768     0.5689222873
C     3.6528178559     -2.75476721     0.7786243486
C     3.1890379573     -3.5144905163     -0.3383226111
C     2.9402315304     -2.9313040733     1.9713325881
C     2.6988759478     0.5315224177     3.3539834777
C     3.406668123     -0.6077980795     2.7619687376
C     2.8823427284     -1.9015324223     2.9874388109
C     1.5586870641     0.2841620871     4.1408296864
C     1.0528394864     -1.036696521     4.3243409261
C     1.686975186     -2.1089129873     3.7307786152
C     2.7967528058     1.8564588129     2.7737702463
C     1.6537015479     2.7847795054     2.8177557477
C     3.7656091445     2.0290667423     1.7684852755
C     1.623410147     3.8434942999     1.8885468255
C     1.7034952943     -3.6657906081     2.0112780292
C     1.1039403677     -4.1806679046     0.8405305464
C     1.9327586983     -4.1892964965     -0.3143564232
C     -0.346385706     -4.1656411914     0.7166737538
C     -0.9137524292     -4.2499453098     -0.6401787442
C     -2.2582171936     -3.9304981822     -0.8271548406
C     0.9059646195     -3.1408452402     3.0731937911
C     -0.4910247051     -3.0783831352     2.9867441711
C     -1.1447593302     -3.6443532064     1.7991308514
C     -3.1725576677     -2.3055388745     2.3669317054
C     -2.5375354004     -3.2781208381     1.5502646761
C     -3.0746977703     -3.4445786111     0.2464919145
C     -2.4611664272     -1.6348585562     3.4110746821
C     -1.1488529355     -2.0125262758     3.7554040894
C     -0.3770785888     -1.0035204499     4.3782245968
C     -0.0351528539     -4.1393022078     -1.820474684
C     1.3578775944     -4.1204158017     -1.6353264537
C     -2.7323275068     -3.2896470429     -2.0436789028
C     -1.8467924392     -2.9804908715     -3.0578207118
C     -0.5027363313     -3.4799613774     -2.98688228
C     -3.7456055279     -2.3595169189     -1.7038790026
C     -3.8002477415     -1.0757763562     -2.331773163
C     -4.4362917462     -0.0530312582     -1.5951340774
C     -4.1482713108     -1.391698502     1.835609608
C     -4.5424219561     -1.4641593939     0.4769424172
C     -4.0357996514     -2.5308903658     -0.295974389
C     -4.8216764641     -0.2433475364     -0.1893674865
C     0.3270181912     -2.5461934349     -3.685024935
C     1.6858043816     -2.3972422606     -3.3895848444
C     2.2211377215     -3.3440955991     -2.4665451846
C     3.3755864555     -3.0265830721     -1.6811583355
C     4.0185807481     -1.8320754894     -1.8835707539
C     -0.4896476564     -1.4091564606     -4.0397631097
C     0.018056465     -0.1058018268     -4.0293508581
C     1.452959984     0.0887918195     -3.7892616748
C     2.281513008     -1.0691550683     -3.5039834356
C     3.5117244496     -0.8611357514     -2.8425655582
C     0.9795800696     2.4549442135     -3.3755207714
C     1.919899182     1.3948063906     -3.3959538567
C     -2.761099871     -0.6859456645     -3.2775762135
C     -1.8512358958     -1.6931965617     -3.6833063843
C     -4.1227618075     1.3033103687     -1.808969254
C     -3.0559614761     1.7156007666     -2.6623799463
C     -2.3302739168     0.6918934733     -3.3879652286
C     -0.9506753572     0.9626504595     -3.8107742561
C     -0.424001004     2.2410196003     -3.5941314119
C     4.6588094055     1.2411744373     -0.219350285
C     4.6091122035     -1.1188570101     -0.7726463095
C     4.6701057087     0.2526100199     -1.1675282637
C     3.1349028314     1.5767985996     -2.6169776053
C     3.9181898607     0.4307710494     -2.3945703016
C     4.0349191189     2.5026045312     -0.5094172722
C     3.2524123449     2.6963332212     -1.6695796834
C     1.1240315149     3.5899526963     -2.5271578194
C     2.1946030775     3.7022115168     -1.6042173494
C     1.9215451853     4.3616127105     -0.3694425549
C     2.5865892511     3.9428599841     0.828720981
C     3.6216523332     3.0426421034     0.7589403488
C     -0.1982691943     4.0832502315     -2.2147805095
C     -1.7795583094     4.3735463127     -0.4072899226
C     -0.484397063     4.6073209231     -0.9265487302
C     0.5789234048     4.7116214849     0.0057451567
C     -4.3669283664     1.9766621573     -0.5421819652
C     -3.6628933753     3.0824926005     -0.1999762103
C     -2.7610210982     3.6847096552     -1.153142029
C     -2.4324697927     3.001880039     -2.3688847453
C     -1.1496640755     3.261899713     -2.8919191701
C     -3.9425838696     -0.1243440482     2.4711202517
C     -4.1118996857     1.0935703111     1.7893770009
C     -4.6815156988     0.9969836505     0.4730530625
C     -0.7685689216     0.3792288451     4.3006960704
C     -2.0937323085     2.0400960327     3.0219253491
C     -1.9992589886     0.7774557708     3.7399004047
C     -2.8993988705     -0.2760563543     3.4485585896
C     -3.1200711313     3.2429769792     1.1440294869
C     -3.2122569789     2.215598244     2.105921293
C     0.388550493     4.3595857581     1.3857341295
C     -1.9698526625     4.0470311829     1.0135836781
C     -0.8641525334     3.8861977845     1.8747080452
C     -0.9000423397     2.8517106959     2.8839090443
C     0.3870303329     2.3628928938     3.3991554453
C     0.4113245285     1.1687872234     4.125911051


