98

 C     -3.5294362067     -0.7377849766     -2.8701706396
C     -3.1235692929     -2.0470906678     -2.5759116713
C     -3.756044616     -2.6758404417     -1.4611658315
C     -3.0698535431     -3.702263652     -0.7280024177
C     -1.9080708701     -4.2208009244     -1.2340704411
C     -1.2749232351     -3.6242844732     -2.408868403
C     -1.7666929164     -2.4479996778     -2.9786159839
C     -2.634046766     0.1885348352     -3.5326644165
C     -1.2680207834     -0.105146606     -3.7465997249
C     0.2865540004     -4.2915177026     1.7054339986
C     -0.96076291     -4.3970797183     1.0401216815
C     -0.893985966     -4.6937206837     -0.3561121815
C     0.3499693839     -4.5916003132     -1.0632031472
C     2.6493166252     -3.8502846739     -1.0876290631
C     1.5932573205     -4.4977849734     -0.3909543493
C     1.5474330677     -4.4145140314     1.0246268097
C     -0.8204157983     2.319188813     -3.5891700621
C     -0.3177657878     1.0106692341     -3.7972978547
C     -0.7978577167     -1.4564504076     -3.4871706315
C     1.5714811925     -0.5758535066     -3.4414361271
C     0.6125854588     -1.6928114123     -3.3711702996
C     1.070429642     -2.9665082726     -2.8050921452
C     0.1140776135     -3.8773870885     -2.3013834497
C     2.3779898916     -3.1052044975     -2.2803613647
C     -2.0862686691     -3.6430698907     1.5621097674
C     -3.1930633641     -3.4384852415     0.6830831269
C     0.4625232755     -3.3594701762     2.7613581403
C     -0.5646575248     -2.5025681451     3.1906198404
C     -1.8997920892     -2.6857433412     2.6396329774
C     -2.8939704787     -1.6347298663     2.8312711331
C     -2.5180528095     -0.5222514001     3.5986827567
C     1.8556322871     -2.9543916741     2.7858930632
C     3.4514200735     -1.1527330264     2.6714239497
C     2.2404076559     -1.6609287674     3.2034177684
C     1.2339458907     -0.7416236494     3.6866157129
C     -0.1490812765     -1.2296743538     3.7872733332
C     -1.1613182155     -0.3136248077     4.0381888277
C     3.7020370295     -3.1726464791     -0.3836089646
C     3.6173321929     -3.0074710449     1.0337276484
C     2.5297247678     -3.6258220939     1.7271770056
C     4.1212222345     -1.7992096733     1.5924799149
C     -4.0017293079     -1.4427351869     1.8854340206
C     -4.1027213599     -2.3494218474     0.8141920258
C     -3.078240914     0.7859185729     3.362253302
C     -4.0252834609     0.9922889532     2.3850414876
C     -4.5357018413     -0.1330713684     1.6687018263
C     -2.0716380138     1.778426958     3.5868769208
C     -1.9658693235     2.9125987431     2.7480359065
C     -0.6959818244     3.5204314052     2.7148949788
C     3.662604984     0.2593903176     2.5432135197
C     2.7130478417     1.1849964281     2.9778690247
C     1.4991059723     0.6712961719     3.6378171203
C     0.3989840847     1.5908313932     3.8271721028
C     -0.8988444349     1.0962076426     4.0518209199
C     0.4662427943     2.892660152     3.2820231842
C     -4.8620423662     0.3289630148     0.3506833843
C     -4.8022443206     -0.5467955187     -0.7640555924
C     -4.4934910387     -1.9056154546     -0.5139788063
C     -4.3881095052     0.0024590741     -2.0034055573
C     -2.839281046     3.0504623426     1.5805101217
C     -3.9144384859     2.1267500159     1.4859810341
C     -4.4497623401     1.711037628     0.2372942762
C     -2.3440283399     3.6870158408     0.3747634942
C     -3.953201507     2.2472460064     -0.9809778088
C     -4.0359472297     1.4037869647     -2.120803295
C     -0.2834839131     4.3103607641     1.603491033
C     -1.0309572937     4.3399233189     0.4046348086
C     -2.9159658563     3.2861756435     -0.9097749006
C     -2.1419629788     3.4887972941     -2.0764293292
C     -2.1584848474     2.5429436602     -3.1505606573
C     -3.0579544249     1.4965493511     -3.1514063407
C     3.1956320708     3.5373982648     -1.1739566752
C     1.9576089126     3.9641205894     -1.7961824148
C     1.3661656855     3.179833115     -2.8301034372
C     -0.0111428842     3.3476570577     -2.9872840804
C     3.8349463627     2.4377170316     -1.6754388528
C     -0.8130156366     4.0401343085     -2.0272875172
C     -0.2631135901     4.5261384246     -0.8313100237
C     1.1587375335     4.5957422641     -0.8019673651
C     1.1693374346     4.3039353469     1.6071795777
C     3.1062477901     3.7497810539     0.2474847673
C     1.8806550149     4.4662766063     0.4472569824
C     4.4945070501     0.4884639965     1.381051137
C     4.5377535875     1.5546145222     -0.7830685338
C     4.3797165029     1.68581619     0.6304882436
C     3.5514027999     2.7556590381     1.1613720943
C     2.7357450321     2.5141424993     2.3582444532
C     1.6264187044     3.3539947137     2.5804069278
C     4.1682779761     -2.0966174689     -1.2085613998
C     4.5903464823     0.2716635894     -1.4067343991
C     4.7152350333     -0.9083414471     -0.6483117896
C     4.7319794076     -0.7730057277     0.7715147965
C     1.9576276149     1.9059753918     -3.2300185467
C     1.1023834923     0.7750261505     -3.6120185722
C     3.2473037557     1.6426019769     -2.7390269368
C     3.717619399     0.3189401236     -2.5733612008
C     2.9251216846     -0.790974875     -2.9474741605
C     3.2991643135     -2.0240515678     -2.3442735648


