98

 C     -4.0823383501     0.8150270515     -2.1298777104
C     -4.8930527541     0.3909071868     -1.0436641927
C     -5.0225137917     -0.9930140711     -0.6765348493
C     -3.3511563279     -0.2124929375     -2.8791517285
C     -3.5682170687     -1.5687576855     -2.5447396294
C     -4.4125929148     -1.9635332788     -1.4402797943
C     -1.7210250927     1.4774004084     -3.5816225915
C     -2.0900153503     0.1112856672     -3.5240713037
C     0.3358213526     -0.4206896972     -3.8682557595
C     -1.0427821605     -0.8662766492     -3.6813602488
C     -1.2655295164     -2.2133820133     -3.199049958
C     -2.5185477771     -2.5297552327     -2.649679656
C     1.3520432644     -1.3639968478     -3.7420342631
C     0.8641975198     4.3273634813     -1.203245917
C     0.9999183955     3.4994466832     -2.3531478937
C     -0.2020386703     3.1635698398     -3.0253537078
C     -0.3380516431     1.8955286629     -3.671847159
C     2.0212024647     1.3904675017     -3.2161704765
C     0.7066474767     0.9872941701     -3.731544395
C     -4.3891903314     -2.1747856068     1.3845480065
C     -3.8006831535     -3.2302108773     0.5804910468
C     -4.9914441301     -1.0901879733     0.7803735504
C     -3.8103068287     -3.1224112851     -0.8091030109
C     -2.647625324     -3.4755990011     -1.54821102
C     -2.6155122953     -3.6720455308     1.2435058943
C     -1.466971283     -4.0729819787     0.5353246054
C     -1.502371326     -4.0062376741     -0.9207620005
C     1.1148879238     -2.7030262228     -3.2693597967
C     -0.1647171385     -3.0861171337     -2.847300485
C     -0.2719286444     -3.954830049     -1.676235336
C     0.90306855     -4.3008666571     -0.9967941234
C     -2.1186276495     -0.4471872092     3.7292912403
C     -3.3194060992     -0.6388034021     3.030244116
C     -3.545544158     -1.9589573211     2.531124959
C     -2.4825463029     -2.9180653384     2.4714018071
C     0.9477857489     -4.275161644     0.4509262486
C     -0.1805132601     -4.003693261     1.2214382378
C     -0.0205783733     -3.2245461405     2.4532121346
C     -1.2140356897     -2.6577818449     3.03911062
C     -1.1117770134     -1.4628556916     3.7908611982
C     -3.9198220995     0.5170665871     2.3722729312
C     -4.8096526202     0.2472837847     1.3014163003
C     -4.9141367168     1.146177628     0.1840160544
C     -3.2169756278     1.811496682     2.3950634951
C     -3.5235749682     2.7450673059     1.3897462533
C     -4.3226437382     2.3857019771     0.2485346779
C     -1.4561679623     0.8319222702     3.7806033426
C     -1.917345695     1.9501949098     3.063186984
C     -0.9292916659     2.9332724353     2.6481306914
C     -1.2915830304     3.8539003418     1.5682590314
C     -2.563627989     3.7121196058     0.9412056983
C     -0.2897019641     4.4631599518     0.7919041965
C     -0.0711894019     0.6009265384     3.9954172448
C     0.9102351083     1.5004320847     3.593517865
C     0.4756068728     2.7259009553     2.9443102289
C     2.8072210764     2.9832414014     2.144048601
C     1.4787876786     3.4570640611     2.1916613714
C     1.0882430853     4.2619480746     1.0972434732
C     3.6291940875     -0.9857568422     2.7794618985
C     2.472012319     -0.4939084715     3.4047959635
C     2.2605638347     0.9585752959     3.4475182546
C     3.2255255311     1.7828231255     2.8471868924
C     2.2558954093     -3.8416424281     0.845059077
C     2.4218509316     -3.0318271048     1.9939847993
C     1.2639890191     -2.6579566926     2.7766968291
C     1.3328120706     -1.4000905992     3.5230571161
C     0.1473942595     -0.8348358015     3.9786428494
C     3.581989973     -2.2229124661     2.0180194278
C     -2.4343532492     2.4899396268     -2.8972872998
C     -3.5659401719     2.1801991074     -2.0902410879
C     -3.7470596487     2.9682128107     -0.9211356649
C     -2.7217248785     3.8796652842     -0.4703223983
C     -0.4184929259     4.5974390296     -0.6408220987
C     -1.6119097576     4.2036723119     -1.2923638406
C     -1.4927360855     3.5286381419     -2.5311510621
C     4.5764397552     2.0364779961     0.9818080462
C     3.6032598192     3.0965510494     0.9575238772
C     3.0132661575     3.5226250834     -0.2637405037
C     1.8142430456     4.2350335137     -0.1302575005
C     4.9238981566     1.4118763311     -0.1987975203
C     5.0355761906     -0.766583423     0.9413664148
C     4.5807401985     -0.1216764649     2.1538358347
C     4.3719923103     1.2514349506     2.1820565583
C     5.1822324126     -0.0146151657     -0.2170065681
C     3.0541983927     -3.647132835     -0.3274645083
C     4.0717288998     -2.6659067427     -0.3749583134
C     4.4240693868     -2.0778568287     0.8729456234
C     3.2834796193     -2.0684967987     -2.6575343908
C     2.3059547167     -3.1330459183     -2.6035526861
C     2.2000979406     -3.9077943099     -1.462746979
C     4.7075138513     -0.5370111697     -1.4773934579
C     4.2059109433     -1.8540498919     -1.5931438254
C     3.2399692187     2.7484487955     -1.4883537578
C     2.1511884302     2.613503397     -2.4666837903
C     4.2251290488     1.7514859733     -1.429400483
C     4.1220956895     0.5559627171     -2.2103382989
C     3.0261997484     0.3619277279     -3.0815003506
C     2.6966527299     -0.9847793063     -3.3717081754


