98

 C     3.9988926176     1.4111499647     -2.2036791934
C     4.7219793303     0.7291031667     -1.1804100044
C     4.830846684     1.4257720496     0.0524703155
C     3.2930570961     2.6209853678     -1.9607340459
C     3.3268987872     3.2687946108     -0.7070716511
C     4.1664617196     2.6672646796     0.277160398
C     4.7209128031     -0.7444317005     -1.1742201697
C     4.8287796652     -1.4308772883     0.0644707527
C     3.2327033597     0.6686708126     -3.1823566077
C     3.2317171017     -0.6986604077     -3.1766171801
C     3.9968362694     -1.4340021342     -2.1917279048
C     2.0167742557     1.3796644258     -3.4763519812
C     -1.6689412425     0.7148650134     -3.5428762506
C     -2.8473663352     1.3835271688     -3.121203428
C     -0.4210872202     1.4508740941     -3.4790924452
C     0.7936328038     0.7155472967     -3.7143202597
C     0.7925754684     -0.7464739393     -3.7081750469
C     2.0147632382     -1.410337451     -3.4646354105
C     0.9100794387     3.2786351665     -2.3720073622
C     2.0691923272     2.6065655325     -2.7584441734
C     -1.4889175603     4.2179689656     -1.1889858072
C     -1.5767777894     3.3241927166     -2.293896433
C     -0.3642483311     2.7574373329     -2.8468306847
C     -2.7919038585     2.632022491     -2.4529632191
C     0.9933879163     4.1368740586     -1.1841978841
C     1.9502713949     4.2180501276     1.0895082505
C     2.1669576698     4.0515557615     -0.3015921926
C     -0.2111383846     4.5959841218     -0.640935722
C     3.2892553857     -2.6407307173     -1.9386278053
C     3.3221716564     -3.2780336237     -0.6795709746
C     4.1626070134     -2.6694780079     0.2995797975
C     0.9874038786     -4.1467217553     -1.1494025257
C     2.1611011885     -4.0556826454     -0.2675276327
C     -0.2177728757     -4.599502166     -0.6023055725
C     2.0654030005     -2.631236602     -2.7364376154
C     -0.3682503185     -2.7793283567     -2.8235595755
C     0.9053328027     -3.2983669587     -2.3443827708
C     -2.7957163473     -2.6471096016     -2.4307824419
C     -1.5815843933     -3.3396711273     -2.2658937754
C     -1.4950109522     -4.2242655702     -1.1535187673
C     -1.6699878216     -0.7407908409     -3.536751812
C     -0.4231953725     -1.4780377899     -3.4667729714
C     -2.8493685151     -1.4041833122     -3.1094738195
C     -0.4013667674     -4.7192722208     0.8204948773
C     0.6394298612     -4.3983761189     1.6604126862
C     1.9441857279     -4.2101673273     1.1249104946
C     2.6468865109     -3.372615629     2.0705210043
C     3.7413368143     -2.6655574022     1.6852861458
C     -1.721035405     -4.3077232889     1.1490177737
C     -1.9309936554     -3.3952121202     2.2239677739
C     -3.1100560319     -2.6366577717     2.1781577351
C     -3.8337471021     -2.6573111239     -1.400858475
C     -3.5879942687     -3.3155024352     -0.1718213774
C     -2.4457987524     -4.1504733336     -0.0899821604
C     -4.0098972383     -2.6525529777     1.0119958943
C     4.8031681584     0.686913145     1.3090056885
C     4.802178817     -0.6814520699     1.3147555827
C     3.9829106216     -1.3753260443     2.2617913391
C     1.6792919914     -2.7875109348     2.9754714832
C     1.7337140082     -1.4214168043     3.3233179144
C     2.9724254278     -0.7082459395     3.013540789
C     1.7357873705     1.4481752206     3.3112582264
C     2.9734652009     0.7306324253     3.0074959662
C     3.984905126     1.3899042535     2.2501700721
C     1.6833332848     2.8113747723     2.9519488038
C     2.651769705     3.3874519185     2.0421139562
C     3.7451922772     2.675594785     1.6628420428
C     -0.7891340591     -2.8299531443     2.9467334928
C     0.4443919923     -3.4601833504     2.7503702615
C     -0.7824041193     1.4662616568     3.3768855946
C     -3.1853497307     -1.379296125     2.8018793388
C     -2.0258117697     -0.702893333     3.3231216912
C     -0.7845028735     -1.4353100951     3.3890839338
C     0.4711983912     -0.7126695589     3.5249752562
C     0.4722446781     0.7429755682     3.5188507395
C     -4.2420067828     -0.6650104617     2.1301823457
C     -4.2410222737     0.6904025554     2.1244817868
C     -3.1833430291     1.4087859513     2.7901683355
C     -2.0247792184     0.735111498     3.3170741479
C     -0.785030912     2.8571456061     2.9228333089
C     0.4494037323     3.4839168469     2.7211958428
C     -4.5332552407     -1.4221979504     -1.4520772862
C     -4.9369896992     -0.7342595026     -0.2713274951
C     -4.686407454     -1.4162313953     0.9611340795
C     -4.5312134262     1.4178864911     -1.464019746
C     -3.979899053     0.6733372197     -2.5844232057
C     -3.9808732802     -0.6878794106     -2.5786932048
C     -4.6843419189     1.4324100345     0.9491566706
C     -4.9359285524     0.7404738024     -0.2775188157
C     -2.439805337     4.1544890855     -0.1248766739
C     -4.0060578716     2.6681430967     0.9896354961
C     -3.583212488     3.3205116447     -0.1997069685
C     -3.8299169041     2.6523660928     -1.4231660095
C     0.6457914234     4.4126396619     1.6233899122
C     -3.1062405266     2.6607563669     2.1559028697
C     -1.9260881678     3.4179636514     2.1953396399
C     -1.7148140005     4.3211096984     1.1127611378
C     -0.3945507655     4.7279818916     0.7808028906


