98

 C     -3.8590059623     2.2826750285     -1.3612862941
C     -4.7285216032     1.1740765688     -1.2040416177
C     -4.5703728106     -0.0092438961     -2.0039068389
C     -2.8627915104     2.2611566545     -2.4479074563
C     -2.8661869403     1.1489322885     -3.299980992
C     -3.6667231084     -0.0130476715     -3.0372541774
C     -1.4943351656     3.9198993892     -1.2742413256
C     -1.6087332762     3.0318285557     -2.3451226422
C     -0.3688277918     2.6003671388     -2.9884525714
C     -0.4531714168     1.4312244305     -3.838663634
C     -1.6576289701     0.6972141562     -3.9280651211
C     0.7050211958     0.7042268612     -4.1332653815
C     -0.2184140823     4.3302597251     -0.7759079654
C     1.0017746168     3.8455344061     -1.2983204942
C     0.9346217463     2.9928627023     -2.4672148513
C     3.3414925362     2.2604091165     -1.99107825
C     2.1375984019     2.2439876857     -2.8363683664
C     1.9877763542     1.154496322     -3.7185921484
C     4.2594482826     1.1746958725     -2.0945251266
C     3.3379118307     3.0193874537     -0.7514133876
C     2.1640036512     3.8073903844     -0.4050521905
C     4.2020421407     2.5950724485     0.2997724728
C     1.9410615024     4.0807820239     0.9721731737
C     -3.8597284846     -2.2967754465     -1.3450601801
C     -2.8635085331     -2.2832720778     -2.4318062578
C     -4.7288931191     -1.1868157625     -1.1956760473
C     -2.8665539267     -1.1771134734     -3.2917405901
C     -1.6578541907     -0.730238035     -3.92300728
C     0.7047936618     -0.7394524853     -4.1281520777
C     -0.4536284445     -1.4639772927     -3.8284048705
C     -0.3696530675     -2.6270920914     -2.9699305473
C     -1.6096942081     -3.0535924046     -2.3235618378
C     -1.4955755673     -3.9340891929     -1.2464146151
C     -5.1783656914     -0.7310648031     0.105302106
C     -2.4486249693     -3.9107599758     -0.1452570092
C     -3.5852895173     -3.0789406356     -0.1503333951
C     -4.019785074     -2.6078603281     1.1221603296
C     -4.8033926348     -1.4134952944     1.2472272693
C     -0.3984624236     -4.5475831727     0.6700305937
C     -1.7237097197     -4.1657106651     1.0470193164
C     -1.9307789426     -3.3579377832     2.2079398459
C     -3.1205220371     -2.6410217598     2.2398424421
C     0.6333751226     -4.3032264839     1.5261769957
C     -0.2197827609     -4.3413101224     -0.7451851223
C     1.0005587059     -3.8606844078     -1.2710183778
C     0.9336741465     -3.0162961272     -2.4459241764
C     -4.8029467977     1.4180836504     1.2371953556
C     -4.3275201995     0.6976266322     2.4090852975
C     -5.1781354507     0.7276977375     0.1001332193
C     -4.3277382031     -0.6849016517     2.4139831515
C     -3.2111925343     -1.3875947046     2.9553122717
C     -2.0394416033     -0.7153156156     3.4060393644
C     -0.7852342794     -2.8232047212     2.9387728508
C     0.4423389124     -3.4416931551     2.6947921596
C     -2.4473915891     3.9046745529     -0.1729478705
C     -3.5843187754     3.0731998063     -0.1721307701
C     -4.0189621486     2.6112856378     1.103668984
C     -3.1196861516     2.652081541     2.2210873212
C     -1.9297170445     3.3683789125     2.1841075845
C     -1.722394685     4.1678399042     1.0174932708
C     0.634734997     4.3080031578     1.4956667057
C     -0.3970269833     4.5466132796     0.6378103297
C     -0.7791848926     -1.4441974648     3.4194512961
C     -2.0392126696     0.7343465378     3.4009019037
C     -3.2107512057     1.4037847764     2.9454207145
C     0.4434278467     3.4548317465     2.6703564021
C     -0.7843402592     2.8384749446     2.9187119535
C     0.4696507926     -0.7258087258     3.5457319666
C     0.4698830941     0.7450369011     3.5405172086
C     -0.7787260328     1.4629071142     3.4091472384
C     2.633889372     -3.3349196843     2.0101475099
C     1.6678992734     -2.7854678948     2.9427428793
C     1.7289609225     -1.4256253485     3.3320567687
C     3.7507033612     -2.6413928743     1.6881421523
C     4.0155109625     -1.3816790123     2.3359560343
C     2.9807270427     -0.7132655411     3.0569534902
C     2.980955217     0.7282385884     3.0518472467
C     1.7294140652     1.4429248309     3.3218926389
C     1.6687813357     2.7999934825     2.9229529885
C     1.987408325     -1.1871772924     -3.7102983433
C     2.1368866705     -2.2704360321     -2.8203752412
C     3.3407773555     -2.2812496708     -1.9749884066
C     3.3369575733     -3.031421735     -0.7299758237
C     2.1627997739     -3.8165789713     -0.3780397912
C     1.9397726307     -4.0801325625     1.0010876335
C     4.2012217594     -2.599940408     0.3181783329
C     3.9219264152     -0.0135408708     -2.838073666
C     2.8188039272     -0.0161707818     -3.6295851818
C     5.0548970778     -0.7371223911     -0.980988295
C     4.2590751767     -1.1965854785     -2.0861241225
C     5.01334638     -1.4247153253     0.2158283658
C     4.9213690427     0.6912959895     1.4695536768
C     5.0137943059     1.4188940922     0.2057526099
C     5.0551273131     0.7228246668     -0.9861614572
C     4.9211518987     -0.688150403     1.4744410601
C     2.6349441317     3.3425187214     1.9864891375
C     4.0159479043     1.3911984297     2.326130925
C     3.7515387032     2.6463748584     1.6694076413


