98

 C     4.7290589188     0.8569810008     -0.1992000636
C     4.3965017243     2.2214665134     -0.3767213952
C     4.4320232159     -1.9936193654     0.16916242
C     4.4292202843     -1.1630835722     1.3110952273
C     4.6172466271     0.2836095771     1.1463904531
C     3.6797247061     -1.6577847138     2.4243395325
C     2.8224891454     -2.7896484892     2.3212504588
C     2.7675241222     -3.57390347     1.1536684836
C     3.670144741     -3.1986568809     0.1126665838
C     3.0486338525     -0.7430506044     3.3411930693
C     3.262440894     0.5971845545     3.2205616139
C     4.1219823898     1.1197533329     2.1793811142
C     3.668719232     2.4512667426     1.933360974
C     3.8404874902     3.0092375263     0.6865571386
C     1.7430142954     -1.2333589794     3.690219588
C     -1.7952748999     -0.0154294849     3.5628629926
C     -3.0578870979     -0.5419434235     3.1709747271
C     -0.6763948787     -0.9342911149     3.6284594694
C     0.6328710315     -0.3697684002     3.8286785605
C     0.8561428095     1.0702709677     3.6967793095
C     2.1734628491     1.5190414412     3.451091409
C     0.3730465318     -3.0570385449     2.7672450877
C     1.6188510662     -2.5204942481     3.1003077049
C     -2.1237041352     -3.7581995782     1.6327043771
C     -2.0867870688     -2.7344297164     2.6170912047
C     -0.8103496045     -2.2992058869     3.1435590265
C     -3.1828773189     -1.848702509     2.6490182981
C     0.3394629782     -4.0513230225     1.6920625457
C     1.2876995222     -4.5653339002     -0.5301557538
C     1.5169698527     -4.245925621     0.8334322206
C     -0.9196567205     -4.3933703255     1.1785107203
C     0.5488671562     4.6084584219     0.1543193871
C     2.8269954161     3.89422177     0.1662040524
C     1.6474686009     4.1780982869     0.9112406391
C     2.4374000162     2.6867388223     2.683925045
C     0.0394385452     3.166987047     2.5879385496
C     1.3975526021     3.4790751245     2.1773664146
C     -2.3589919818     3.3213155428     2.0382938378
C     -1.0504931781     3.8125423431     1.8712111428
C     -0.7865866695     4.5090639346     0.6554887017
C     -1.5733736254     1.41337334     3.4080278566
C     -0.2297885688     1.9509440555     3.3368909128
C     -2.6222523156     2.1922904481     2.8457549124
C     0.4988573177     4.4268827739     -1.2658185008
C     1.5455570291     3.7991811801     -1.9612545474
C     2.776070577     3.7035169154     -1.2487969581
C     3.7566082636     2.7013981844     -1.5861831933
C     3.4924200557     1.8408770023     -2.6240380579
C     -0.8637427391     4.2209195972     -1.631973224
C     -2.5213553182     2.7459603702     -2.5558973732
C     -1.2037281559     3.2400171379     -2.6046582512
C     -0.1643482104     2.4098727259     -3.1997651079
C     1.2105774235     2.7953226933     -2.9730300296
C     2.2162396221     1.8727922513     -3.3112912534
C     -3.34696405     3.3573463778     0.9519256081
C     -2.9462592803     3.7935859809     -0.3361643648
C     -1.6758272641     4.4064486279     -0.4600876481
C     -3.4367373779     3.0647261953     -1.4480310898
C     4.4720876483     -1.4111224707     -1.1692370113
C     4.5771259091     -0.0162459387     -1.3635739476
C     3.945034265     0.4828377523     -2.5409800178
C     3.0089221401     -0.3107897905     -3.2730046002
C     2.8122925223     -1.6626251555     -3.0018621377
C     3.6961343639     -2.2309122215     -2.0321528079
C     2.1075050035     -3.9986613896     -1.5710258059
C     3.2785814987     -3.3715273548     -1.2640227917
C     -2.8426816063     1.4681971093     -3.0525553989
C     -1.8345099727     0.5498006237     -3.474653304
C     -0.481441438     1.0417430844     -3.5901208608
C     0.5788359574     0.0643838817     -3.7396787796
C     1.904942436     0.5356909088     -3.6780866163
C     -0.9997029981     -1.8258092907     -3.2819117031
C     0.3439449487     -1.3673854265     -3.5403052098
C     1.4798315322     -2.2236171312     -3.2157806811
C     1.2226846836     -3.468104812     -2.610588338
C     -4.0200637248     1.0347739414     -2.3433753523
C     -4.2582292335     -0.2932241567     -2.1846796359
C     -3.3367384227     -1.2560441869     -2.7309025721
C     -2.0909721321     -0.8654718325     -3.315939929
C     -1.2190154557     -3.1115963534     -2.6300793295
C     -0.0913943463     -3.8891964682     -2.3084756799
C     -4.236892398     2.2676267315     1.1149287608
C     -4.7231523699     1.511890735     0.0063204996
C     -4.3323181027     1.983140203     -1.2842511437
C     -4.692916094     -0.5163503977     1.4625796034
C     -4.0526155455     0.264401749     2.5101371299
C     -3.8352895259     1.5956378033     2.3415844974
C     -4.8120407032     -0.7979493043     -0.9346765707
C     -4.9657013279     0.0696600263     0.1873507556
C     -3.0521923038     -3.6890970274     0.5347198913
C     -4.3495030585     -2.130600358     -0.8032826148
C     -4.0495639802     -2.6831713103     0.469640418
C     -4.2026037673     -1.8377221844     1.5941714887
C     -0.0344390896     -4.6458143853     -1.0640943352
C     -3.4655713052     -2.420617224     -1.9335124567
C     -2.4299304382     -3.3619344363     -1.8498701554
C     -2.3576201357     -4.1186848782     -0.6399432665
C     -1.110093879     -4.6789860199     -0.2192245503


