98

 C     3.4801396172     -3.1211922104     -0.1496968753
C     2.8255979228     -3.3986849658     1.0612682295
C     3.2578504826     -2.6521793304     2.203350378
C     2.3405098636     -2.3833657679     3.2704805212
C     1.1381223707     -3.0189098585     3.2979215427
C     2.8135609066     -3.3163383193     -1.3993671547
C     1.4427882474     -3.6843058476     -1.4926723304
C     0.7229866556     -4.0000825935     -0.2684505629
C     1.4534967632     -3.9188971221     0.9942559643
C     0.7041296612     -3.8521789236     2.1833977381
C     -1.4591149246     -3.6805131004     -1.4885500889
C     -0.7366730201     -3.9981848946     -0.2663766599
C     -1.4633826477     -3.9151016712     0.9983933909
C     -0.7104797811     -3.8503458921     2.1854100192
C     -2.8286553562     -3.3089937987     -1.3913791944
C     0.7168079598     -3.2790329182     -2.6932036307
C     1.3801024422     -2.436892505     -3.6271698934
C     -0.7354666015     -3.2771339679     -2.6911475989
C     -2.3399309099     -2.3772716462     3.2771285505
C     0.0011421829     -2.3489007949     3.8447568901
C     -1.1391276768     -3.0159468726     3.3011412594
C     -3.2609763176     -2.6436744476     2.212580616
C     -3.4911745006     -3.1120886132     -0.1398131021
C     -2.8339223622     -3.3913036695     1.0692964318
C     -2.4247459075     -0.991114974     3.6603945306
C     -1.2560044667     -0.2283079575     3.9298039076
C     0.0032969801     -0.9435602268     4.0751123574
C     1.264036288     -0.2315797837     3.9262311025
C     2.4300283159     -0.9974253072     3.6535008339
C     0.0061219933     1.8906053203     3.4705835844
C     1.2749086093     1.1811279776     3.6012955417
C     2.4998752732     1.7496394354     3.0308138885
C     2.4246008522     3.0068142419     2.3947637318
C     -2.4892172964     1.7561328345     3.0379011801
C     -1.2641159719     1.184439091     3.6049049814
C     -2.4124604272     3.0131042014     2.4016302824
C     -1.1925627371     3.7194353245     2.2851734732
C     0.0069300547     3.2046162846     2.8297536443
C     1.2062140498     3.7163297849     2.2817695108
C     -3.5495215485     -0.4589231705     2.9618989089
C     -4.4145763125     1.2491685982     1.5003004715
C     -3.6144793362     0.9052506171     2.639233056
C     -4.4145054267     -2.0044396699     -0.2646354559
C     -4.6591934021     -1.1390237771     0.834125882
C     -4.0785289846     -1.4835055904     2.0815659476
C     -4.8356330518     0.236394027     0.5611437053
C     3.6217947711     0.895832057     2.6289659153
C     3.5541945078     -0.4681678907     2.9518385822
C     3.2102815077     3.3092657708     1.214528983
C     4.1255142508     2.3997951657     0.7355047609
C     4.4195629709     1.2376860639     1.4877878683
C     2.415544869     4.0664119597     0.3088811439
C     2.3687241016     3.706829617     -1.0751002505
C     1.1679078135     3.9784111583     -1.7619810532
C     -1.1998565705     4.4104218346     1.0123035489
C     0.0052840373     4.6636074714     0.3212658963
C     1.2117071478     4.4072795668     1.0089044635
C     0.0030507493     4.4808613768     -1.0886167941
C     4.8352882966     0.2237926616     0.5474205918
C     4.6560447605     -1.1511589323     0.8209152401
C     4.0780176385     -1.4941348849     2.0699962863
C     4.4059936246     -2.0159284236     -0.2771466437
C     4.6619933888     0.7402412783     -0.7848894567
C     4.2830662131     -0.0949693564     -1.856093078
C     4.2980672094     -1.5016049055     -1.6038988642
C     2.6766697827     -1.8832943232     -3.3609258223
C     3.406378515     -2.3726657974     -2.3119158581
C     3.2141500007     2.6104728354     -1.5728827656
C     4.1677235426     2.0796635697     -0.6821111038
C     0.7200639752     3.1368134125     -2.8257461833
C     1.474876398     2.0410949078     -3.2925397084
C     2.7708725763     1.7704873867     -2.6851539215
C     3.3615956576     0.4564670668     -2.8535603221
C     2.673619285     -0.4704886529     -3.6727498927
C     -0.7439213246     1.0285451462     -4.0105874365
C     0.7327817172     1.0266245113     -4.0126845104
C     1.401654791     -0.1819699129     -4.2553457953
C     -1.4166231719     -0.1782943054     -4.2513377654
C     -2.4065212495     4.0726718585     0.3156962767
C     -2.364569083     3.7129909237     -1.0684099123
C     -1.1649951226     3.9814570638     -1.7586786846
C     -2.7763189581     1.7777195479     -2.6772893371
C     -1.4813298023     2.0449556469     -3.2883445996
C     -0.7223535283     3.1386980705     -2.8237196231
C     -4.1667086997     2.0905251201     -0.6703117021
C     -4.1196354203     2.4105335891     0.7471745298
C     -3.20067897     3.3175803943     1.2236022031
C     -2.6876958983     -0.4635047359     -3.665142057
C     -3.3709334499     0.4652410048     -2.8440123204
C     -3.2142544322     2.6188383786     -1.5637861103
C     -2.6935528461     -1.8762739508     -3.3533016376
C     -3.421580762     -2.3637687923     -2.3022424068
C     -4.3089639634     -1.4903819159     -1.5916947748
C     -4.2910105861     -0.0837907375     -1.8439433288
C     -4.664729821     0.7524033926     -0.7716702789
C     0.6706337151     -1.4282701294     -4.3543176235
C     -0.68914545     -1.4264995249     -4.3524004726
C     -1.3991872298     -2.4332601875     -3.6232237008


