98

 C     4.0236588764     -1.3024468963     -2.0483257446
C     4.0447474367     0.0895622964     -2.2002223373
C     4.678707078     0.81381635     -1.1546100251
C     4.4361659087     2.2114071497     -0.9645682047
C     3.5754478159     2.8624992541     -1.827844024
C     3.0352156091     -2.1140248103     -2.6956239468
C     1.8714651971     -1.5274315109     -3.2671224563
C     1.8428602534     -0.0764796844     -3.418993042
C     2.9877825336     0.7124097579     -2.9839271039
C     2.8378121861     2.1072620735     -2.8283990828
C     -0.6445617634     -0.2278736762     -3.6956240992
C     0.5772174116     0.5688453092     -3.6359116393
C     0.4486483913     1.99637506     -3.3967042802
C     1.5717061291     2.7224251226     -2.9885332859
C     -1.8761446282     0.4515539093     -3.691635015
C     0.6311524285     -2.2982459641     -3.23380923
C     0.6566586232     -3.5808550749     -2.6291940199
C     -0.6519990017     -1.6334287884     -3.3707107837
C     3.5209562442     3.4365846732     0.9464479776
C     2.6776138939     4.1938360959     0.0385737358
C     4.38617901     2.4749502785     0.4625890752
C     2.6982438526     3.8976043365     -1.3234727827
C     1.4674276679     3.8282174114     -2.0383756452
C     1.4258064385     4.4077323002     0.6949741416
C     0.2066791004     4.3901022411     0.0051392746
C     0.2400056084     4.1231166802     -1.430807082
C     -1.9770737136     1.8764874948     -3.4479926407
C     -0.8368042905     2.6143038734     -3.1316717291
C     -0.9450382645     3.6529981517     -2.1113187441
C     -2.1635378686     3.8072100009     -1.440272492
C     1.8228333627     1.5840283114     3.6419421303
C     2.9094263239     1.9380832402     2.8287161377
C     2.7878852377     3.1880840152     2.1548928215
C     1.5061687652     3.8231923822     2.0208180763
C     -2.1820929899     3.9472832748     0.012367028
C     -1.010035048     4.0833487689     0.7549296453
C     -0.9593439714     3.483886528     2.0751746983
C     0.3549973471     3.3483255948     2.6905150462
C     0.5867670153     2.3132323446     3.6232560845
C     3.7347167199     0.8683989255     2.2778403342
C     4.5116972174     1.1965019792     1.1361203384
C     1.502886906     0.2196228066     3.904107609
C     2.2037410428     -0.8476861361     3.3031704492
C     3.3683416633     -0.5313084241     2.4966952415
C     3.8790172556     -1.5460745645     1.5866165148
C     3.2775576687     -2.8214435027     1.5993738587
C     0.1085302697     0.129173211     4.1985396566
C     -2.0236845091     -0.8526150389     3.786652127
C     -0.6373532356     -1.037750359     3.9391149961
C     0.0268608159     -2.1918650561     3.3502490852
C     1.4657936597     -2.0985180438     3.1298401515
C     2.0683999153     -3.0812259418     2.3417902536
C     -3.3238585427     3.2499108361     0.5124998932
C     -3.2562130351     2.5155316965     1.7194514069
C     -2.0542715019     2.652610785     2.5287507527
C     -1.770750468     1.6107465077     3.5145025523
C     -0.4620396483     1.435030489     4.0066331319
C     -2.5932801086     0.4583033218     3.5761564697
C     4.5575421819     -1.1532560576     0.358852427
C     4.816884886     0.2132054272     0.1433321143
C     3.2700899352     -3.6816762211     0.4410497466
C     3.7767391502     -3.2188753916     -0.7706518804
C     4.4054823341     -1.9403510321     -0.8118824677
C     2.0483749692     -4.4537823316     0.4670192179
C     2.9855845021     -3.3611489212     -1.9774906763
C     1.8147603289     -4.0790749994     -1.948344738
C     1.3677408836     -4.703410689     -0.7112959955
C     -0.0628158113     -4.7106518352     -0.7111686053
C     -2.1421740087     -4.1190259227     0.2974591498
C     -0.8007687122     -4.5003645331     0.4773774257
C     -2.8151346908     -1.7988882799     3.0832365078
C     -2.2103963424     -2.9244555694     2.4684059817
C     -0.7637278535     -3.1490752798     2.6171081795
C     -0.1049395165     -4.059934553     1.6892299104
C     1.2987362243     -4.0706866498     1.6520218658
C     -2.8712912939     -3.4328073997     1.3160405096
C     -3.7534038169     -2.8093139966     -0.729556684
C     -2.6342811395     -3.6697245646     -0.9661952449
C     -3.9146658521     -1.0903460848     2.4827467896
C     -4.9483736345     -0.521664325     0.3649843408
C     -4.4605725158     -1.5162015513     1.2505251949
C     -3.9466948397     -2.707759636     0.6842139732
C     -4.0884819786     2.7875836587     -0.6253816139
C     -4.808358445     1.6124286929     -0.5430028735
C     -4.8536999783     0.8884673295     0.6944238193
C     -4.1086445195     1.3196218284     1.823691389
C     -3.7389050198     0.3080128599     2.7565253292
C     -3.9490036295     0.8859088191     -2.7287188446
C     -3.2472639062     2.1406237672     -2.8474718183
C     -3.3316968857     3.0861172744     -1.8221198625
C     -4.7543967348     0.6467414855     -1.6294713014
C     -0.4930503623     -4.0752608206     -1.9323097625
C     -1.7409705287     -3.4375519438     -2.0398743061
C     -1.8629313861     -2.2378023449     -2.8408180168
C     -4.0300501733     -1.7422421298     -1.605480795
C     -3.0773831302     -1.4578191798     -2.6915932684
C     -3.0845800505     -0.1625752108     -3.2375279444
C     -4.7969549314     -0.6662250555     -1.0545384314


