98

 C     3.2882605741     2.4741324727     -1.5802506525
C     3.9269640983     2.459730317     -0.324211191
C     1.343966741     2.0991994206     -3.6322561541
C     2.274981052     1.0570022327     -3.3956318938
C     3.3023810445     1.2475555904     -2.3826148885
C     4.0047465182     0.0888849854     -1.8725289645
C     3.6990855464     -1.1726061595     -2.4470860583
C     0.4875552733     -0.5320502257     -4.2153582183
C     1.873299096     -0.2614435114     -3.8397009138
C     2.6702173947     -1.3463183454     -3.4025532026
C     -0.0178452068     -1.8555322509     -4.0681294083
C     0.8081659242     -2.9173899345     -3.5527983114
C     2.111485118     -2.673716333     -3.2255225717
C     -0.4821174617     0.5179766796     -4.2196365657
C     -1.8692429632     0.2491490904     -3.8478005749
C     0.0227398223     1.842149321     -4.0768335772
C     -2.6677652472     1.336081814     -3.4187400965
C     4.5814419953     0.0860300668     -0.5276149523
C     4.5148136947     1.2777290478     0.2251177917
C     3.7587392612     -2.3977347321     -1.6546831608
C     4.1429614971     -2.3563801293     -0.3412630742
C     4.6214687087     -1.126374101     0.2261927319
C     2.7040778378     -3.2752051842     -2.0504831848
C     3.3835938287     -3.0662762765     0.6513763594
C     2.2282978265     -3.7861548886     0.3249779708
C     1.9081400237     -3.9584643523     -1.0990300724
C     -0.3963119361     -4.5278030249     -0.4797396366
C     0.5433023296     -4.2775338894     -1.4930166564
C     0.0156121379     -3.785735763     -2.7233988255
C     4.3203016476     -1.152753714     1.6193016585
C     4.1382411201     0.0515515129     2.3477250573
C     4.3180598344     1.2721673041     1.6540060336
C     3.211933038     0.0325508395     3.4131561279
C     3.4894224059     -2.3125578865     1.873759312
C     -0.0741398351     -4.3277383005     0.9353798581
C     1.1752543452     -3.8481006248     1.3468936747
C     1.2255085238     -3.04083866     2.5579154153
C     2.4429727871     -2.2784325793     2.8199375481
C     2.3996765026     -1.1294570833     3.6621106754
C     2.4179053365     1.185760803     3.720281338
C     2.4969519828     2.3822819964     2.958162628
C     3.5425388951     2.4328879155     1.9962767492
C     3.4041156722     3.2150996203     0.7976284488
C     2.318898997     4.032758358     0.6485040439
C     1.176814578     0.7459417271     4.253119058
C     -1.202540222     0.7254891247     4.2192094713
C     -0.0170479599     1.4710455675     4.0474301709
C     -0.0149208384     2.6755094913     3.2123075092
C     1.2624516833     3.1475486362     2.7252402782
C     1.2530891575     4.0319598537     1.6210185769
C     -1.269178995     -4.0182595272     1.6354721688
C     -1.2825965364     -3.1285937063     2.735428614
C     -0.0070176554     -2.6542235136     3.2249305446
C     -0.0079530139     -1.445813061     4.0543386827
C     1.1769039342     -0.6994471496     4.2269539879
C     -1.2025594192     -0.7197570489     4.2522032838
C     1.3256839941     3.303016259     -2.8229992181
C     2.244733574     3.4784747266     -1.7769450504
C     1.7673477632     4.2384800074     -0.6641188885
C     0.3880120464     4.5314377068     -0.4997858922
C     -0.5478609093     4.2763526557     -1.5153120025
C     -0.0156617641     3.7787220046     -2.7414070353
C     -2.109671314     2.664292993     -3.2459393805
C     -0.8051666721     2.9064387691     -3.5695879687
C     -3.3960309175     3.0752655908     0.6243451543
C     -2.2395426919     3.7936053852     0.2987935053
C     -1.9141398147     3.9591374979     -1.1248342953
C     -2.7065818516     3.2713643253     -2.075956748
C     -2.4232213809     1.1527990245     3.6478390362
C     -2.463405761     2.2977635444     2.8000764041
C     -1.2449833433     3.0589382883     2.5389285068
C     -1.1902691701     3.860426407     1.3242769155
C     0.060637309     4.3380922459     0.9150758324
C     -3.5063623993     2.3273670827     1.8498959452
C     -4.6323534299     1.1333609142     0.2038159761
C     -4.1517505252     2.360653858     -0.3677024286
C     -3.7626985311     2.3957692294     -1.6798849316
C     -4.5257353189     -1.2707249547     0.2145408914
C     -4.5895725563     -0.0826102984     -0.544075045
C     -3.2345681821     -0.0103863558     3.4014050201
C     -4.33423581     -1.2583719857     1.64410664
C     -4.1569537895     -0.0344684464     2.3326802121
C     -4.3363080754     1.1663580177     1.5978822715
C     -2.3314056153     -4.0236893203     0.6590623888
C     -3.4171640094     -3.2053462675     0.8003244171
C     -3.5599964053     -2.4174472032     1.9947290143
C     -2.5179428784     -2.3622430535     2.9601908097
C     -2.4416886565     -1.1621174007     3.7169151478
C     -1.3254241044     -3.3104340673     -2.8121819144
C     -2.2483195503     -3.4809210919     -1.7686962489
C     -1.7750354443     -4.2356420492     -0.6505347111
C     -3.7001429715     1.16689532     -2.4662427703
C     -4.0079301689     -0.0918555938     -1.8868276524
C     -3.3037022555     -1.2529202239     -2.3888235147
C     -2.2725770014     -1.0671708128     -3.3989569672
C     -1.3407099924     -2.1104640658     -3.6272002144
C     -3.9358811859     -2.4553086846     -0.3270017226
C     -3.292560734     -2.4756718098     -1.5806024512


