98

 C     -2.4894258964     -0.4352797231     3.5272847314
C     -3.5764915192     -0.0403917503     2.7147454976
C     -4.2077454324     -1.0940432083     1.9926666704
C     -4.8076554445     -0.8297252476     0.7003546909
C     -4.8946516667     0.4574389505     0.2423821659
C     -1.4436889764     0.4779335155     3.851038607
C     -1.4297112969     1.7963920551     3.3735173769
C     -2.5328396405     2.2471715729     2.5253883621
C     -3.59936836     1.3249662804     2.2035886681
C     -4.3624004007     1.5579890815     1.0141047929
C     -1.0977465804     4.0968053292     1.7901933647
C     -2.3150086658     3.4010042848     1.6617128977
C     2.3207780608     2.2355926825     3.184563984
C     1.1011369316     1.6983492172     3.6222605541
C     -0.1341473654     2.4555206014     3.3743972969
C     -0.0399020493     3.660300161     2.6574904218
C     -3.344073158     0.1024167908     -3.069306908
C     -4.2051564109     -0.3060816387     -2.0215814514
C     -4.694029592     0.7250552312     -1.1588216193
C     -4.2330891613     2.0713499314     -1.2618909062
C     -2.4418355736     3.5143269354     -2.0370035721
C     -3.3557540807     2.4565871001     -2.3013215733
C     -2.9434894249     1.4625277153     -3.2243488534
C     -3.019862448     3.5237395744     0.3846081538
C     -4.02277692     2.5718552858     0.0880305405
C     -2.3650507175     4.1182636401     -0.7277094073
C     -4.0520116694     -1.6636931119     -1.5141274371
C     -4.5096131725     -1.9185484854     -0.1967419742
C     -3.9086263404     -2.9319030439     0.6157493574
C     -3.001500504     -2.5340587912     -2.0594140304
C     -2.5950357519     -3.6388647014     -1.301109296
C     -3.020464907     -3.8125872323     0.068609944
C     -2.2679986903     -0.7419240109     -3.5466387546
C     -2.0242143445     -2.0140696756     -3.0212231542
C     0.3927403536     -1.6749809184     -3.5916779257
C     -0.6626669129     -2.5339139352     -3.0980714203
C     -0.2956611075     -3.6848847707     -2.2847053074
C     -1.2778435166     -4.2122422949     -1.4207320078
C     1.7404910701     -2.0460027862     -3.3668807566
C     -1.1340676908     3.5407509893     -2.6126352314
C     -0.6483103639     2.4492576319     -3.3903576162
C     -1.5972876285     1.4670693377     -3.744274656
C     -1.1992536639     0.116935649     -3.9567987074
C     1.153499857     0.7508671078     -3.6721237923
C     0.1430684043     -0.2728093951     -3.8954530037
C     0.4115730981     -4.8004769322     0.2561422238
C     -1.8929689919     -4.3091436963     0.8304969461
C     -0.9121471584     -4.720637329     -0.1229645882
C     1.432990988     -4.5197228009     -0.6889171898
C     2.1008806805     -3.148403432     -2.553001372
C     1.1023872285     -3.952575538     -1.9495359467
C     0.8153854586     -4.2821670599     1.5367043894
C     -0.0881110405     -3.630769513     2.380975742
C     -1.5227173707     -3.7157120918     2.059374246
C     -2.4547996509     -2.7472578461     2.630488157
C     -3.6581532315     -2.4073586559     1.9484726455
C     -1.9361246109     -1.7545876518     3.4794256793
C     2.1799459638     -3.8290432403     1.3955732847
C     3.8376376807     -2.1079448255     1.6297124957
C     2.6914849375     -2.7372874409     2.1599786578
C     1.7918615561     -2.0161071641     3.0433466311
C     0.4312896606     -2.5093920249     3.1879829628
C     -0.5220452105     -1.6520973647     3.749537418
C     3.3640291829     -2.8491204387     -1.9170213153
C     3.5747299416     -3.2184482699     -0.5636636976
C     2.5860691632     -4.0389617876     0.0509571986
C     4.2866900846     -2.3365914118     0.2882607857
C     4.1554585835     -0.7532323161     1.9810945451
C     3.3162163482     -0.0284863208     2.8591722715
C     2.102970747     -0.6349526476     3.3801822191
C     1.0443502112     0.2534300395     3.8154270053
C     -0.2284062872     -0.281811231     4.0184864022
C     3.3919573677     1.3865778587     2.7557029839
C     4.8209528655     -0.139081766     0.8716125224
C     4.498323441     1.6888672521     -0.718115996
C     4.6772028127     1.2511356967     0.6288377388
C     4.0601617078     2.0221269294     1.6438861353
C     3.7887529632     -1.5662677951     -2.3821939926
C     4.3671863451     0.7149120081     -1.7786618223
C     4.532598425     -0.6755143264     -1.5452785199
C     4.8084377221     -1.0916932373     -0.2051893859
C     1.6401843288     2.9301051731     -2.5096864739
C     0.7519496645     2.0967008593     -3.3297040513
C     2.9327067739     2.4669505163     -2.2446228068
C     3.3892798622     1.198297556     -2.7073625545
C     2.5060435861     0.314659497     -3.3740552234
C     2.7855740038     -1.0657633174     -3.2827560479
C     0.9571469995     4.6115119882     0.7656672684
C     -0.4690205557     4.7280841011     0.6482329744
C     -1.0557151178     4.6651662726     -0.5914116171
C     1.7684333533     4.2256122145     -0.3216792273
C     1.1002332329     3.9492722931     -1.6088886144
C     -0.2589691663     4.2607794582     -1.7277983677
C     3.3457479021     3.2284284752     1.3320635096
C     2.3623087887     3.4151453296     2.3634104337
C     1.2117550141     4.1025068992     2.0933898483
C     3.6423928718     2.7837182483     -1.0188749171
C     3.0389492136     3.5763288752     -0.0119503095


