98

 C     1.1995186361     -4.3675083629     -0.6811741669
C     2.1408397586     -4.0566697337     0.3268800207
C     3.3724049673     -3.5137539141     -0.1147787409
C     4.2127504163     -2.7570942541     0.7602475457
C     3.7810292559     -2.4920417046     2.0586795314
C     -0.1895090287     -4.4219595763     -0.4110207429
C     -0.7187909843     -4.0822318317     0.8556195569
C     0.2091532824     -3.6505444895     1.8832656132
C     1.6353182438     -3.7070465747     1.6454340508
C     2.4736637473     -2.9242058429     2.4736086115
C     -1.658395362     -2.5555813471     3.0139257443
C     -0.2861519713     -2.7461249513     2.8999988993
C     -4.0246187207     -2.6616594338     -0.2640498422
C     -2.8574019507     -3.4356550213     -0.3302002447
C     -2.121219968     -3.7200623497     0.9038494226
C     -2.5956920641     -3.1349061305     2.092541718
C     5.1419441692     -0.4968067527     0.5733916911
C     4.7330150528     -0.2338571227     1.9495192564
C     4.8558679356     -1.7132105308     -0.0159936655
C     4.0248376869     -1.1878362811     2.645434519
C     2.6239016356     2.7754776928     2.4528034884
C     4.3574135643     1.1468994813     2.0469469219
C     3.2156049133     1.5465942858     2.8014154714
C     0.5554021867     -1.7095121359     3.4565407243
C     1.9284596251     -1.8905511916     3.3190600923
C     2.8345780559     -0.7956512854     3.3799821162
C     0.9257490051     0.7564180686     3.5738589479
C     2.3637706058     0.532474389     3.4184708199
C     0.0445774113     -0.3729459979     3.6897671287
C     3.8251331037     1.8984090479     -1.9131547964
C     4.4380280802     0.6997652986     -1.4784653975
C     4.9960380685     0.7141505254     -0.1675532259
C     4.6116461115     1.7505506788     0.7668887182
C     3.0042900028     3.4952085847     1.2803732656
C     3.9128659489     2.9144489237     0.3466391075
C     3.6262174545     3.0264400555     -1.0396665572
C     3.9838701973     -0.5590746199     -2.0641431531
C     4.2988518839     -1.7523132265     -1.3489199149
C     2.7480311246     1.8778846552     -2.8383637952
C     2.2002145735     0.6767495603     -3.3302347086
C     2.8548415917     -0.5749810257     -2.9860375821
C     2.1303186337     -1.8206305183     -3.1921135743
C     0.8608746398     -1.7637785021     -3.7913063003
C     1.9262646837     3.0402127524     -2.608818322
C     -0.250127522     3.9506056537     -2.1523703015
C     0.540066224     3.0499813502     -2.8993420047
C     -0.0720010091     1.852057821     -3.4749832867
C     0.7995123817     0.7166754007     -3.7550361407
C     0.1923093806     -0.5072691154     -4.0339531215
C     1.8649835434     4.2473478117     0.8325009509
C     1.6035399284     4.3926051964     -0.5563595349
C     2.470031274     3.746071193     -1.4895861314
C     0.2500116321     4.5413290752     -0.9394973828
C     2.4117546233     -2.9902714919     -2.3585760678
C     3.4640277833     -2.9080739475     -1.4249757022
C     -0.1589091177     -2.7351405406     -3.5089060464
C     0.0753183596     -3.7752304237     -2.6196510613
C     1.3719381516     -3.8972718568     -2.038245567
C     -1.4312244214     -2.0847228425     -3.5088369142
C     -0.9120449538     -4.0964878719     -1.6374847057
C     -2.1542531704     -3.4563062407     -1.6009246076
C     -2.4474843928     -2.4307777123     -2.6100774139
C     -4.085156982     0.9343151274     -2.2494016036
C     -3.3188520668     -0.0729015448     -2.8576701192
C     -3.4856602985     -1.4450987943     -2.3743953258
C     -4.3670704791     -1.6932524713     -1.302958896
C     -1.6448422799     3.7172361421     -1.9900522516
C     -2.287343567     2.6355956898     -2.6218990312
C     -1.4941702935     1.6543679959     -3.3512029084
C     -2.066506763     0.323333591     -3.5046236248
C     -1.2142374359     -0.7017861291     -3.8986368554
C     -3.5327776322     2.2610476804     -2.0697593339
C     -4.8397310901     1.7630532598     -0.2191609627
C     -4.9662244959     0.663632233     -1.1549126721
C     -5.1084130564     -0.6370770111     -0.6837236509
C     -4.7905383562     1.5127441541     1.1415196873
C     -2.0053449367     4.1036960555     -0.6561103334
C     -3.0651131151     3.4912584491     0.0225366743
C     -3.9594811241     2.7448410776     -0.7911066503
C     0.7846163435     4.0026399917     1.7447527855
C     -1.5393725488     3.2162294475     2.0138831456
C     -0.5678612344     4.0681380311     1.3503070393
C     -0.8151840605     4.5048407285     0.0198861558
C     -3.7419603293     2.1355185094     1.9443825611
C     -2.8577422566     3.0898206751     1.416124383
C     -3.5574133919     -1.2368680731     3.0396168904
C     -2.2034609727     -1.3199265951     3.5119081318
C     -1.3866834129     -0.1754338785     3.6611631912
C     -4.1141576953     -0.0041687755     2.7708876241
C     -3.3044361473     1.1848823461     2.9147202265
C     -1.947472245     1.1243492321     3.317632303
C     -1.0701176964     2.2014474141     2.9400464845
C     0.3571095138     2.0463793636     3.202953953
C     1.2303934689     3.0286596916     2.6947935975
C     -5.1867264323     -0.8879331764     0.7416948271
C     -4.5393570612     -2.1583393688     0.9850442498
C     -3.7911482512     -2.3517220751     2.1386075951
C     -4.9962865167     0.1699502562     1.6342594998


