98

 C     -1.9295568429     2.665020573     -3.0666248528
C     -0.790001377     3.351675396     -2.6216132567
C     0.509614406     2.7912675138     -2.9446636256
C     1.6710357165     3.3400791257     -2.2600329159
C     1.4946935596     4.2101741681     -1.1478150369
C     2.8890167004     2.6338066897     -2.310200776
C     2.9934676817     1.3931227876     -2.9783539071
C     1.8479171864     0.7263044331     -3.497289336
C     -1.8319145051     1.3995192191     -3.7034441718
C     -1.8316627501     -1.4017059069     -3.7022143148
C     -0.5962224987     -0.7346614915     -3.858748358
C     -0.5963532641     0.7325587274     -3.8593920042
C     0.6036781081     1.4705040317     -3.5457412331
C     3.8480207179     2.651698208     -1.1985052745
C     3.4971980815     3.302663918     0.0099041089
C     2.3397230936     4.1194917993     0.0058567648
C     3.8403072191     2.6527999511     1.2211020965
C     4.0801309698     -0.6796030776     -2.3545620467
C     4.0800149223     0.6796471663     -2.355161532
C     4.548875126     1.4214847951     -1.1941970015
C     4.8784750944     0.7373383548     0.0154590049
C     4.5411954347     1.4225307862     1.2223476219
C     1.8480463908     -0.7276578838     -3.4966460287
C     2.993717421     -1.3938177522     -2.9771281322
C     0.6039413558     -1.4721195724     -3.5444470051
C     2.8742966651     2.6359111796     2.3266389681
C     1.6566800257     3.3420876614     2.2681011995
C     1.4874145223     4.2111761496     1.1539329399
C     0.4909103271     2.7938629998     2.9457755906
C     -0.8066344643     3.3539766448     2.6139540294
C     -1.9489774981     2.6677207367     3.0523010935
C     4.0650889638     -0.6775332416     2.3815645872
C     4.0649680144     0.6817550578     2.3809634975
C     2.974488615     1.3957381257     2.9965694852
C     2.9747429168     -1.3911650674     2.9978030045
C     1.8258087577     -0.7245950319     3.5093899135
C     1.8256784113     0.7294183295     3.5087487385
C     0.5811369807     1.473649533     3.5486019845
C     -0.6208644846     0.7359613552     3.8552599384
C     -1.8553986686     1.402758778     3.6908630722
C     4.5491287211     -1.4203298292     -1.1929402515
C     4.8786085205     -0.7350587286     0.0161053417
C     4.54145266     -1.4192499174     1.2236050766
C     -0.9649653174     4.2272747425     1.4463477038
C     0.1764465841     4.5828008963     0.7138910588
C     -3.1969222751     2.6818597929     2.2935632856
C     -3.2975259902     3.3986195093     1.129947171
C     -2.1829281022     4.2089377771     0.7048998306
C     -3.0681317589     -0.6767247254     3.3794664506
C     -3.0682586468     0.6805422088     3.3788695551
C     -3.8180425731     1.3971532303     2.3841400062
C     -0.6207302462     -0.7312726012     3.8559087439
C     -1.8551435492     -1.3984431061     3.6921026819
C     0.5814052827     -1.4690136963     3.5499072782
C     -3.2902815398     3.3976171851     -1.1535280182
C     -2.1783989671     4.2083233071     -0.7221293155
C     -0.9557628613     4.225999171     -1.4558353133
C     0.1810004629     4.5821892787     -0.7164454817
C     -3.1823048034     2.6798480143     -2.315852212
C     -3.8177909024     -1.3943483026     2.3853725131
C     -4.3667042141     -0.7299704903     1.2498498735
C     -4.3668394631     0.7316764688     1.2492047728
C     -4.4015430981     1.4651136671     -0.0144555359
C     -3.9475907073     2.8141405301     -0.0136071371
C     -3.802838513     1.395045995     -2.4092362708
C     -4.3588268373     0.7305677999     -1.2772303822
C     -3.0467427076     0.677560952     -3.3985385129
C     -3.0466219191     -0.6797007363     -3.3979447421
C     -3.8025876512     -1.3964568259     -2.408010676
C     -3.9470816201     -2.8134692838     -0.0111276879
C     -4.3586947173     -0.7310862718     -1.2765859306
C     -4.4012805914     -1.4645267233     -0.0131652432
C     -2.1776350857     -4.2079471424     -0.7184210812
C     -3.2896667589     -3.3978270004     -1.150536259
C     -3.1818142518     -2.6810569026     -2.313491738
C     0.1818268944     -4.5813829049     -0.7124037733
C     -0.9549962546     -4.2260498458     -1.452111839
C     -3.1964328509     -2.679019022     2.2959274536
C     0.1772740571     -4.580737085     0.7179338426
C     -0.9642006374     -4.224768846     1.4500756189
C     -2.1821635325     -4.2073060157     0.7086089766
C     -3.2969104197     -3.3968221738     1.1329431396
C     2.874771322     -2.6319479525     2.3289700629
C     1.4881714922     -4.2084896558     1.1576523387
C     1.6572826407     -3.3383907964     2.2710570069
C     0.4914164786     -2.7897774916     2.9482475159
C     -0.8060254696     -3.3504187556     2.6169163759
C     -1.948493927     -2.6639848164     3.0546571168
C     3.8484982835     -2.6506767487     -1.1961678236
C     2.340465941     -4.1176659027     0.0094910611
C     3.4977918563     -3.3006339374     0.012819247
C     3.8407908102     -2.6496435394     1.2234451421
C     -1.9290723453     -2.666664876     -3.0642790742
C     -0.7893940675     -3.3527241321     -2.6186611759
C     0.5101179822     -2.7923694964     -2.9422044681
C     1.4954523105     -4.2095119625     -1.1440957431
C     1.6716358481     -3.3403744987     -2.257090291
C     2.8894899934     -2.633932957     -2.3078770952


