98

 C     2.9798980562     0.2204271104     -3.1023058011
C     4.1466892274     0.0755615313     -2.3227111967
C     4.7041097396     1.1835758195     -1.5776512557
C     2.3442677765     1.5348098369     -3.1834914926
C     2.8977108862     2.5916100217     -2.431907289
C     4.0681666578     2.4073744119     -1.6096277586
C     0.351171572     0.500104492     -4.0993000484
C     0.948662154     1.6483102658     -3.5508159845
C     -1.3652882059     2.4645160383     -3.0118608488
C     0.0818250246     2.6599572006     -2.9866117755
C     0.6485585894     3.5648935673     -2.01263591
C     2.0397937841     3.52882804     -1.7832555509
C     -2.144331371     3.2212053358     -2.1254185597
C     -1.9589538023     1.2453928903     -3.5590090931
C     -3.2478725156     0.7471904796     -3.0561655408
C     -1.0806303544     0.3289424352     -4.1527495528
C     -3.4961870563     -0.6409044451     -3.1206961227
C     5.0110296226     1.3583038907     0.8527899014
C     4.2779805218     2.605041906     0.826956143
C     5.2410334331     0.6668829159     -0.3353497676
C     3.8686101998     3.1546242637     -0.3846228427
C     2.6073181892     3.8202087025     -0.4807632013
C     3.3560045508     2.6006579818     1.9308784515
C     2.1179522958     3.2440893004     1.8604429744
C     1.7580244831     3.946609329     0.6335019633
C     -1.5608353129     4.060701336     -1.120850774
C     -0.1661754189     4.152937902     -0.9741195261
C     0.3790138675     4.2771762393     0.3717575797
C     -0.5043663772     4.1865656799     1.4577553052
C     4.8454140657     -1.4783891654     0.7876884669
C     4.5294317476     -0.7582777449     2.0117722286
C     5.0991402777     -0.7761380628     -0.3776479156
C     4.5682402353     0.6262635605     2.0278883094
C     3.5000913345     1.3505413043     2.6472494977
C     2.3817335793     0.6880736007     3.2230979908
C     1.0704733724     2.7599785249     2.7427186304
C     -0.1673833107     3.379885325     2.6128447882
C     2.3198174591     -3.9394381006     -0.3437365837
C     3.4296396472     -3.084885807     -0.4760555674
C     4.0269543647     -2.6509154819     0.7416862597
C     3.2606931867     -2.6862987083     1.9524839268
C     2.0530130874     -3.3885045839     2.0509595202
C     1.7145076413     -4.1973622239     0.9361225449
C     -0.599438281     -4.2796723668     1.6489244995
C     0.3608214671     -4.5815409429     0.7031171317
C     1.1098150811     -1.4703849267     3.4239527626
C     1.0021685079     -2.8490303472     2.911410634
C     -2.5709616712     -0.6696176924     3.5844155083
C     -1.3683000122     -1.4047820229     3.6644205022
C     -1.4433890715     -2.7166211822     3.141863936
C     -0.263148335     -3.4239016576     2.7731419777
C     1.1460273585     1.4273834803     3.3505413696
C     2.3651368718     -0.7645596052     3.251092405
C     3.4655770175     -1.4526940081     2.665776502
C     -1.3627453995     2.7727565627     3.1016513664
C     -1.3237876755     1.4651330276     3.6403386999
C     -0.0591716844     0.7403628304     3.708367103
C     -0.0770710805     -0.7282334995     3.7361796596
C     -2.5559500952     0.7694283426     3.58729891
C     3.5141600114     -2.2397577099     -1.6585214479
C     4.4029002967     -1.133173124     -1.6035096522
C     1.2929650854     -3.9985203318     -1.3335329718
C     1.2816473428     -3.1162766538     -2.4241527905
C     2.4064830488     -2.190966504     -2.5891084249
C     2.1948758027     -0.9720058178     -3.3379019549
C     0.9539582144     -0.7870030448     -3.9750470542
C     -1.2577295159     -3.332538367     -2.3929906853
C     -0.0152344127     -2.86044663     -3.0300562904
C     -0.101064882     -1.7638158536     -3.9020823184
C     -2.4665280781     -2.7045878051     -2.7181975147
C     -2.503033829     -1.5588380298     -3.5824893834
C     -1.3339534628     -1.081721999     -4.1337523033
C     -1.2097579204     -4.0251667908     -1.1151520031
C     -2.2716979561     -3.8319683976     -0.11821944
C     0.0605108915     -4.436338087     -0.6844864687
C     -1.9275524775     -3.9790933058     1.2433194033
C     -4.1243383633     -2.2465225565     0.6273657503
C     -3.4329594293     -3.0031107976     -0.42654755
C     -3.5448667259     -2.5503377896     -1.7522749555
C     -4.8678554443     -1.1013060947     0.2601425198
C     -4.3724552038     0.0739195772     2.3613405026
C     -3.6824659532     -1.1085453697     2.8099464173
C     -3.5832664338     -2.2649605482     1.980998286
C     -2.4995646621     -3.1050037234     2.2528149944
C     -4.9402525889     0.0762396845     1.1101575955
C     -2.4704701376     3.2403944029     2.3138216089
C     -3.5992922113     2.4329745675     2.0687768643
C     -3.6767114183     1.2440071457     2.8480798632
C     -3.5886169154     3.2302875657     -0.287367491
C     -2.4488219376     4.0684330792     0.0053137054
C     -1.919459523     4.0939845684     1.2825558214
C     -4.8648288346     1.2683983307     0.2757702268
C     -4.1994166364     2.4379098632     0.7260616217
C     -4.2275765254     -1.3276050755     -2.0719690387
C     -4.8606511258     -0.6154694153     -1.0826593493
C     -4.7788411021     0.8331223472     -1.0798045784
C     -3.9603377024     1.5055429627     -2.0305598566
C     -3.4212391876     2.74095282     -1.616569148


