98

 C     0.5743235791     4.2172110043     1.5208076314
C     1.3136758856     3.2922927803     2.2968376175
C     2.6705322256     2.9840740669     1.8629645599
C     3.3220370401     1.7753102655     2.3316445219
C     4.434532069     1.2767878967     1.5920996112
C     4.7992151326     -0.1048014095     1.6066643303
C     2.5646782277     0.8363034454     3.1482307669
C     3.0145027925     -0.4994217967     3.2165924394
C     4.1222424197     -0.9779030006     2.4415025985
C     0.328259278     -0.0274740217     3.8578141474
C     -1.0420225802     0.1875226917     4.0206950243
C     -0.8787647144     2.5145033282     3.2508364338
C     0.5634313364     2.3602097617     3.1427296158
C     1.1734208838     1.0997617131     3.5011163361
C     -1.634905513     1.4449387156     3.7753875861
C     -0.8587970596     4.2110844343     1.4914156136
C     -2.9475103709     3.1585393599     1.9817022119
C     -1.6037137714     3.4400746006     2.3845467456
C     4.7564228611     -1.7794946625     -0.1957185902
C     4.1552865283     -2.7251755589     0.7214369221
C     5.1169710579     -0.5153604548     0.2428295836
C     3.8254860849     -2.3278833933     2.0057684123
C     1.0394559437     -4.4526986323     -0.28329735
C     3.2216956411     -3.5349797854     -0.0116505871
C     2.0365924697     -4.0427871885     0.6005147169
C     0.7399923906     -1.403784938     3.6043327303
C     2.0900767928     -1.6068070652     3.3543049865
C     2.5526062565     -2.711833942     2.5832904524
C     0.2376714326     -3.4705297994     2.285730294
C     1.6401851823     -3.5613533165     1.9300646833
C     -0.2017903112     -2.4250960711     3.1788128761
C     4.2516220272     0.4980099709     -1.8552662145
C     3.762510464     -0.8220737472     -2.2665740031
C     4.9349852391     0.6053966217     -0.6160432278
C     4.0936889465     -1.9246037016     -1.4589745278
C     3.203029235     -3.0634454587     -1.3602967263
C     1.0572062198     -4.0660624396     -1.6651796153
C     2.0461498971     -3.1836223633     -2.1624370102
C     1.6719140998     -2.1026842645     -3.0487859132
C     2.5628249749     -0.9428315846     -3.1147893145
C     2.0398297883     0.2357074295     -3.6484277021
C     4.6964788062     1.7520709017     0.2525488374
C     2.5286611829     1.5482405781     -3.2650865039
C     3.5874553033     1.7017222916     -2.3547740375
C     3.5518903447     2.8912564933     -1.5696903411
C     4.0522040732     2.8586257961     -0.2056619783
C     0.2710144657     1.7174840089     -3.7504049294
C     1.425434645     2.4489976216     -3.3096096018
C     1.2959427023     3.5276603666     -2.4111513368
C     2.4338210639     3.7715719224     -1.5892046597
C     -1.0357191336     2.0510691859     -3.3567794916
C     -1.2188699045     3.1690707653     -2.4327965622
C     -2.5323128009     -1.4105492516     -3.4405478429
C     -1.6358230435     -0.3666559058     -3.789452935
C     -2.0310142648     1.0073482021     -3.5064527949
C     -3.2823514578     1.2325574247     -2.8842189944
C     -0.2852120986     -3.997148219     -2.1069167755
C     -0.6840203891     -2.9960175201     -3.0175205105
C     0.2841867756     -1.9955070495     -3.4597004523
C     -0.2358467397     -0.7112905917     -3.8916134098
C     0.664853591     0.3615283974     -3.9942914215
C     -2.0705554974     -2.6762339826     -3.0265880834
C     1.0023871974     4.5920196979     0.2028569299
C     3.1410057545     3.5645278948     0.6498081946
C     2.2485060636     4.2481820716     -0.2322824865
C     -2.4554474317     3.2477746587     -1.683341021
C     -0.0445605393     3.8883562428     -1.9512912727
C     -0.1379718301     4.5261834013     -0.6884548406
C     -3.4725818387     2.3051694792     -1.9762357357
C     -2.4829175962     3.8485099542     -0.3539023554
C     -1.2919139194     4.415455899     0.131077031
C     -3.3794347055     3.3715957367     0.637640386
C     -4.7235671185     0.4803063751     -1.1723736462
C     -4.4230387091     1.8619823823     -0.9579666089
C     -4.3477565127     2.3482540614     0.324646353
C     -4.781147916     -0.4560151121     -0.1141726915
C     -4.6186708605     0.0558027863     1.2554501012
C     -4.4837396816     1.4504157003     1.4377800382
C     -3.9814689771     -2.1837148379     -1.7510379965
C     -3.7587573561     -1.144778589     -2.7222256819
C     -4.1171185601     0.1394516882     -2.4466760966
C     -3.9533110601     -2.676387781     0.6162864858
C     -4.4273588516     -1.8515615979     -0.4292509954
C     -1.1500168878     -4.4232637844     -1.0198818237
C     -2.996434862     -3.7123206298     0.3801337222
C     -2.4815277761     -3.9563369893     -0.9200128487
C     -2.9764662012     -3.1642677633     -1.9822404057
C     -2.0139795998     -0.85626229     3.758367766
C     -1.617453237     -2.1187418018     3.2858921365
C     -2.5553157326     -2.7989303665     2.470726469
C     -2.1145693876     -3.7692182919     1.5214820127
C     -0.7510377361     -4.1112176179     1.4080438384
C     -0.3308541484     -4.5835778132     0.1293288778
C     -3.6506382675     2.0095489951     2.4872300633
C     -3.0078452717     1.1864044649     3.3786905438
C     -4.0167577286     -0.8066376521     2.2775238716
C     -3.2214651927     -0.2313382169     3.3140501406
C     -3.7046912289     -2.1370112804     1.937642704


