98

 C     3.9661225093     -2.64288917     1.1415541635
C     3.8748440258     -1.5526426566     2.0549467904
C     4.3695959746     -0.2269555628     1.6810934848
C     3.743812273     0.9705176363     2.2503896726
C     3.920121323     2.1902560527     1.5745481214
C     2.8288568889     -1.6329243264     2.9946661357
C     1.8521185221     -2.667746804     2.9651591817
C     1.8572495074     -3.6732390137     1.9733177055
C     2.9756981487     -3.6641568955     1.0905522591
C     2.1900634002     -0.4360901551     3.5121210613
C     2.5592754684     0.8472794402     3.1192277708
C     1.5373996847     1.893009234     3.2019385449
C     1.7725670179     3.1171804486     2.4649271539
C     2.9083943637     3.225474377     1.6341792624
C     0.6789133315     3.9403177593     2.1047518161
C     0.840231603     -0.7645015814     3.8372464932
C     -0.1878978604     0.1869937038     3.8323294353
C     0.1783824151     1.5711146948     3.5907491687
C     -2.2436171416     2.0285906722     3.2601655463
C     -0.9008591588     2.5066752148     3.3011571687
C     -0.6325418647     3.6719706102     2.5586884361
C     -0.6499640863     -2.5812824358     3.0584821718
C     0.6116673522     -2.1222832152     3.4763452831
C     -3.0119740952     -3.0864764924     1.6230845492
C     -3.0099592783     -1.9596959818     2.4556494798
C     -1.7741417707     -1.6670025728     3.1820835962
C     -1.5329873831     -0.3107286186     3.6258328299
C     -2.5451873272     0.66134911     3.410246147
C     -0.6657893274     -3.7093442928     2.1310210381
C     0.5104740178     -4.7148484969     0.2051753853
C     0.5762730019     -4.2064114076     1.5295984411
C     -1.8735716613     -3.932198135     1.4486302966
C     0.5771572151     4.495245069     0.7830185272
C     1.578037914     4.2994106768     -0.1667982797
C     2.8300643015     3.8528967594     0.3504893393
C     3.8126881953     3.2400646507     -0.4978296598
C     3.4800503311     2.9590044202     -1.8134495814
C     -0.809588302     4.5401376299     0.4181777281
C     -2.5578619793     3.7739464976     -1.0425818442
C     -1.2270965746     4.1922635075     -0.9042764015
C     -0.2098029684     3.7433001102     -1.8709036649
C     1.1841048781     3.9338335279     -1.5368058215
C     2.1538362644     3.2614809504     -2.3065490854
C     -3.2323675179     2.5914164464     2.3500131548
C     -2.8657833564     3.5844645059     1.4126673343
C     -1.5687292827     4.1424325135     1.5466725815
C     -3.4091403992     3.518095489     0.0942341138
C     5.0302086985     1.1153623614     -0.3045834214
C     4.6990643794     0.8259765389     -1.6998312173
C     4.5489726921     2.2701518215     0.2869087472
C     3.8968484845     1.7041464743     -2.4081450429
C     4.3902529283     -2.3897114389     -0.2233113875
C     4.8716742651     -1.16767226     -0.5686269107
C     4.491823634     -0.5788398208     -1.8338486068
C     2.812040564     1.1914176951     -3.1945137155
C     2.5046627173     -0.186013904     -3.2500527631
C     3.4010426248     -1.1158144949     -2.5795397283
C     1.5706604018     -2.8398242166     -2.6223745208
C     2.9142331547     -2.4365497184     -2.2311926327
C     3.524642806     -3.099280119     -1.1259272109
C     0.9923012478     -3.9468596637     -1.9588038078
C     1.5685218023     -4.4581501239     -0.7406214158
C     2.7836270234     -4.0004224218     -0.3099812369
C     -0.767160363     -2.1858245404     -3.2704728633
C     -1.190525465     0.1553544802     -3.8712887424
C     0.1574346908     0.497558406     -3.761466102
C     1.1269357078     -0.5607453103     -3.552245614
C     0.6635331143     -1.9025190413     -3.2774784992
C     -1.6499135302     -1.1609794803     -3.6471566793
C     -2.9505068085     2.8821542982     -2.1001459952
C     -1.9674368518     2.3375196433     -2.9781056142
C     -0.5798692381     2.7588901272     -2.8599501282
C     0.4414126143     1.8829026085     -3.4061365887
C     1.7738229549     2.200707056     -3.1793408568
C     -2.2495192367     1.0805347423     -3.5391558585
C     5.0143041758     -0.1080904889     0.4217876433
C     -3.0193478626     -1.0736432993     -3.178330759
C     -4.5218868905     -1.5213672472     -1.3414799988
C     -3.5397443953     -2.0114987272     -2.2678123414
C     -2.6925207551     -3.1398246471     -1.9048785869
C     -1.3422761326     -3.2672232486     -2.4769506994
C     -0.4320433945     -4.1259788055     -1.8530656225
C     -4.0621976044     2.1228285962     -1.6588897826
C     -4.8514804774     -0.1473968431     -1.2483898675
C     -4.2820561786     0.800787645     -2.1390409986
C     -3.391441255     0.3104419497     -3.1351519272
C     -4.1635946113     1.5659620382     1.99396191
C     -5.0134977648     0.1937041404     0.1747560149
C     -4.7061963547     1.4984930795     0.6739609891
C     -4.320768108     2.4870056915     -0.2698001137
C     -3.7438493778     -3.081131805     0.347952566
C     -4.5509591187     -2.0426018709     0.0102647135
C     -4.7596757133     -0.964396315     0.942303509
C     -3.9807992099     -0.9026405619     2.1508929434
C     -3.7573375741     0.3704116052     2.6743493098
C     -0.6993375483     -4.6822258946     -0.5483074724
C     -2.9283611754     -3.7408416097     -0.6429906929
C     -1.8856462793     -4.3910469741     0.0756606456


