98

 C     3.5406173566     -2.608436306     -0.5472481844
C     4.3528043133     -1.4586401735     -0.8121738968
C     1.2732083152     -4.2488589556     -0.0440420942
C     1.9169136895     -3.6635551497     1.0518895811
C     3.1089595147     -2.8379115081     0.8113683712
C     3.5489365752     -1.9174358451     1.8528820453
C     2.8230077979     -1.9080226359     3.0645080902
C     -0.3412144354     -3.7392629923     2.2271628888
C     1.116994299     -3.5245460547     2.2626669111
C     1.6416531546     -2.7153339633     3.2766610544
C     -1.1418349038     -3.0951050133     3.1773092531
C     -0.5729450303     -2.1728007931     4.1193653301
C     0.782574447     -1.9886182641     4.1641611658
C     -0.9986046158     -4.1385156647     0.9961049054
C     -2.358940429     -3.6701174211     0.6835657351
C     -0.1613416365     -4.5234136267     -0.0570695267
C     -2.7636895494     -3.631956697     -0.6590846215
C     4.3066051246     -0.7090430007     1.524169109
C     4.6949374626     -0.5206918169     0.173567883
C     2.6449492121     -0.696258021     3.8123318243
C     3.2288851833     0.4776706942     3.3895685579
C     4.1401322506     0.4674821415     2.3077115114
C     1.3176259236     -0.6626283929     4.3508038144
C     4.0601772559     1.7776540472     1.6850210469
C     4.3499683224     1.9584016655     0.3126939204
C     4.722421294     0.8137548713     -0.4378138574
C     3.6622514059     2.9922728806     -0.3683749551
C     3.007276342     2.5105188099     2.3131208393
C     0.7870364001     3.5530648133     1.9493926027
C     2.2021605953     3.4268298051     1.592786931
C     2.6424313255     3.7569888428     0.2879995453
C     -1.4735451866     4.121007358     1.1872876488
C     -0.0861553193     4.2172386777     0.992448825
C     -1.4467660521     -1.0442683217     4.2666058012
C     -0.9492759173     0.2841351064     4.2187301747
C     0.4929734135     0.4851117056     4.237950916
C     1.0753594041     1.7029256229     3.6486041738
C     2.4457607098     1.6931542537     3.3508387088
C     -1.8090599434     1.3247798048     3.6706950727
C     -1.2132815651     2.531199894     3.0781458851
C     0.2251185862     2.6909833368     2.9741219022
C     -2.02264457     3.3094074755     2.2207006446
C     3.2699591502     2.8329981677     -1.7425674747
C     3.5086929446     1.643298193     -2.4464391552
C     4.3710757349     0.6905431373     -1.8060427009
C     4.2206841506     -0.7170099774     -2.0614775828
C     3.3585159633     -1.1395861471     -3.026899674
C     2.0611514274     3.5774655925     -1.9523296612
C     -0.2098504341     3.7112718717     -2.656881252
C     1.0660570083     3.1633908994     -2.8750726891
C     1.2151776     1.8770864431     -3.5567099543
C     2.4715791834     1.1692221914     -3.3883820738
C     2.4906239749     -0.1962232777     -3.7205267284
C     0.3733886705     4.4792836198     -0.3743186027
C     1.7044421297     4.1807117462     -0.7102566975
C     -0.5419779119     4.4112157935     -1.4516587187
C     1.682621657     -3.9805217084     -1.3895783084
C     2.7720049922     -3.1356665433     -1.6609421948
C     2.6771614825     -2.3935936745     -2.8831155518
C     1.4543443047     -2.2818391888     -3.5882064417
C     0.3261553914     -3.0650080928     -3.2678475898
C     0.5149160907     -4.0091931729     -2.227035933
C     -1.862274449     -3.9843318405     -1.715580322
C     -0.5922174944     -4.4286907911     -1.4127208997
C     -2.3494299117     -0.4831859255     -3.8221358875
C     -1.123832724     -1.1282316019     -4.0112689802
C     -0.998763045     -2.5178239491     -3.5365000602
C     -2.0805330337     -3.0894777257     -2.8340284771
C     -1.3918048897     3.0243769407     -3.1104311763
C     -1.2847552333     1.7720198982     -3.7495968633
C     0.0235940609     1.1607073199     -3.9680503926
C     0.0685358991     -0.2819891377     -4.1681349208
C     1.3168662554     -0.9080165893     -4.0717093858
C     -2.4328355036     0.9480355552     -3.6574965337
C     -4.0263896226     -0.0344921909     -2.273440535
C     -3.4066298236     -1.0636362688     -3.0423509993
C     -3.2531796951     -2.3292639584     -2.5161028616
C     -4.3805394205     -0.235359712     -0.9261614542
C     -4.1582017698     -1.5720602003     -0.346038275
C     -3.651806621     -2.5930204744     -1.1678378688
C     -2.4797785423     3.3383062164     -2.2335062606
C     -3.9807566437     2.2582809031     -0.5583734409
C     -3.4740630164     2.3740258415     -1.9204999399
C     -3.4900746517     1.2305498101     -2.74092266
C     -4.408171216     0.7130730323     1.3173939988
C     -4.4259659187     0.9468425378     -0.0658199279
C     -3.8132495175     1.6547225488     2.225541719
C     -3.3122940241     2.8386213535     1.7549455091
C     -3.4868096126     3.1949085504     0.3856627512
C     -2.4078113482     4.1052678386     0.0713925445
C     -1.9439092148     4.2010458698     -1.215718291
C     -2.6727559875     -1.4108828419     3.6104227349
C     -3.4980727271     -0.4249551635     3.1276781832
C     -3.1148640069     0.9536926896     3.2659764727
C     -3.9548539044     -1.7352427276     1.0855764239
C     -3.0580025862     -2.7844020257     1.5985304207
C     -2.4825484941     -2.6179705826     2.8670103118
C     -4.1889655969     -0.6067302609     1.8852587945


