98

 C     -4.9736182844     -0.7827990715     -0.0015647399
C     -4.4647196459     -2.1059332409     -0.0007609237
C     -3.9231134901     -2.5924524934     -1.2232169824
C     -3.9105920162     -2.5820630202     1.2217059968
C     -3.6086886489     -1.6704543609     2.2673679634
C     -4.0009830521     -0.3161981067     2.2319733075
C     -4.8684271806     0.0618522128     1.1667825681
C     -2.8863982182     -3.5998767717     1.2234537266
C     -2.3917019332     -4.1435458102     0.0102857667
C     -2.8696162813     -3.5915078692     -1.2196720372
C     -1.0610242663     -4.6259580446     0.017370369
C     -1.9900471651     -3.3300112418     2.3081112233
C     -0.6485761053     -3.7449808119     2.2880676962
C     -0.2547949124     -4.5632023197     1.1865418302
C     2.0780083843     -4.027688126     1.5330853228
C     1.1150980706     -4.5902194163     0.7545370814
C     -3.3503318293     2.0088167295     2.5059349634
C     -3.119100169     0.6645867369     2.8535041353
C     -1.7782942526     0.2689177892     3.3388059151
C     -1.4091525447     -1.1408492899     3.3318367003
C     -2.3683723224     -2.0766857875     2.8830057382
C     -0.0159357096     -1.5616976247     3.3988658543
C     0.3394307368     -2.8991779304     2.945990329
C     1.6993967442     -3.1949936685     2.6684002812
C     -0.187082167     -4.4657519085     -1.1391468808
C     -0.5908367087     -3.6636691809     -2.2210038915
C     -1.9768241579     -3.3221435981     -2.2843044885
C     0.3853611246     -2.8183742505     -2.8700788401
C     -0.1214144765     -1.6219558643     -3.5472250168
C     0.7911997383     -0.6530440459     -3.9338926631
C     1.1621865123     -4.4532470903     -0.691798004
C     2.1637438644     -3.6932545765     -1.3189395677
C     1.7792670891     -2.8849226709     -2.4780952357
C     3.8859968995     -1.5803222843     -2.1760133156
C     2.6944496831     -1.8406697513     -2.9152555396
C     2.1917226586     -0.7632836759     -3.678470377
C     4.1675069125     -2.2808887034     -0.9545398181
C     3.3212009631     -3.3121529812     -0.4971575187
C     3.2528623602     -3.4794716727     0.9220302258
C     -1.5227076634     -1.1915492434     -3.4407593967
C     -2.4290223283     -2.1051136598     -2.911650362
C     0.4410601967     0.7444095005     -3.9344374217
C     -0.8502866581     1.2016816354     -3.5877317807
C     -1.893784107     0.231376058     -3.4463423959
C     -3.170115866     0.6412187131     -2.8796326281
C     -3.3085496639     1.9894702105     -2.4843976555
C     1.6046093158     1.4854475835     -3.6635370216
C     2.7046461919     3.026627417     -2.1705595471
C     1.5513807695     2.6920522343     -2.8880766035
C     0.2434127883     3.195708012     -2.4698903837
C     -0.9377682889     2.5161860119     -2.9741739773
C     -2.1868924325     2.8835885085     -2.4683175329
C     4.432600125     -0.26122257     -2.0678926992
C     3.8098290944     0.8397876668     -2.7140002083
C     2.7153059614     0.5639757039     -3.5584766278
C     3.8267030985     2.1085933626     -2.0527649584
C     -4.0541123731     -0.3376978675     -2.2555793314
C     -3.6683041748     -1.69663616     -2.2931287252
C     -4.1902418918     2.3848310985     -1.4030455685
C     -4.9239673636     1.4250702899     -0.7252802243
C     -4.881305452     0.0568034689     -1.1652829339
C     -3.5560405407     3.461213487     -0.6795115046
C     -4.9311444223     1.4210040496     0.7243707587
C     -4.239020848     2.3914926456     1.4232347155
C     -3.6040285665     3.47312122     0.7112148383
C     -2.4254440334     3.8603099045     1.43592609
C     -0.0959760394     4.2975204791     1.532849323
C     -1.2781364478     4.3471101341     0.7754852749
C     2.5997576943     3.7609294706     -0.9460314704
C     1.338455377     4.2352306762     -0.4810732401
C     0.1373511094     4.0172502044     -1.2914487309
C     -1.1696679198     4.2332020293     -0.6784030939
C     -2.3106505791     3.7774745084     -1.352717631
C     1.201288673     4.3665412876     0.9219164919
C     1.3795058108     3.106225851     2.8349790628
C     0.0127015149     3.4825219574     2.6904234414
C     3.6087594314     3.276752165     -0.0663608873
C     3.8475866352     2.0668374563     2.0323967658
C     3.3458089825     3.1823701816     1.3307802414
C     2.1484477807     3.760996769     1.8143163218
C     4.9950858022     -0.1172357622     -0.7438538319
C     4.6661601768     1.0576608844     1.3745969208
C     4.8981517716     1.1097923146     -0.0439805079
C     4.3629411667     2.2459703501     -0.7534307702
C     3.7365918897     -2.4650453876     1.7980983043
C     4.4434523776     -0.1727158938     2.0285057242
C     4.5381278065     -1.4073423884     1.3285094599
C     4.8309733243     -1.3744358951     -0.0624026018
C     -2.2918812022     2.9629574298     2.5600511953
C     -1.0332938099     2.6217265691     3.084671495
C     -0.7398358855     1.2468893999     3.468009553
C     1.7176513368     1.8272333466     3.3262869238
C     0.6656914802     0.8389667059     3.5783386922
C     1.020012751     -0.5583151529     3.552518733
C     3.0460385513     1.4124951228     3.0178032104
C     3.3885119688     0.037963097     3.0147621442
C     2.418220788     -0.9348781146     3.3010553549
C     2.712620612     -2.2410152848     2.8188700628


