98

 C     -0.7930024833     -4.4363755303     0.9706129021
C     -1.6904840652     -4.280358359     -0.0889465762
C     -2.9697053403     -3.7633649161     0.269788275
C     -3.8320666619     -3.1628029447     -0.7087261368
C     -3.3556942866     -2.97018831     -1.9944984223
C     0.6226835571     -4.5376775582     0.7548057267
C     2.5395267514     -3.8959147422     -0.5419678263
C     1.1790059033     -4.2961683545     -0.5226738279
C     0.2869655816     -3.8881817765     -1.6153502769
C     -1.1447638445     -4.0133882253     -1.4230254152
C     -1.9997648312     -3.3512450274     -2.3262311134
C     -4.9677032656     -0.9821902154     -0.7451999356
C     -4.4649693933     -0.7729640533     -2.1076963937
C     -4.6086980314     -2.1253574784     -0.0564452843
C     -3.6459010012     -1.7286352098     -2.687597895
C     -2.4653886194     -1.3078324395     -3.3747089333
C     -2.0797655156     0.0529407976     -3.4579377344
C     0.2595752301     -0.7636132586     -3.7493232599
C     1.6264126567     -0.5054713417     -3.8016418443
C     3.0697372551     -3.1089925404     -1.6174666188
C     2.2100332592     -2.616535532     -2.6214764468
C     0.7971920359     -2.9831357064     -2.619065433
C     -0.1234610072     -2.1091911746     -3.3182655923
C     -1.4843453107     -2.3579255444     -3.2102716433
C     2.6035937998     -1.4252645609     -3.2801942356
C     -4.1498923359     2.4824234507     -0.7263445681
C     -4.9854056703     0.2720308356     -0.0736688312
C     -4.6499852558     1.2712321597     -1.0783940738
C     -0.6815511975     0.3481603638     -3.6768919305
C     -2.9664040014     1.0584038272     -2.9020573563
C     -4.1623937061     0.6076749014     -2.2679583146
C     -3.1088111569     3.095391686     -1.5121427892
C     -0.1849219075     1.6892306123     -3.4455417529
C     -2.421881645     2.3536006992     -2.5240313652
C     -3.9500021495     2.800338853     0.6676449196
C     -4.0326357902     1.7541740512     1.6451923016
C     -4.5051250612     0.4244506392     1.2531736121
C     -3.9922733484     -0.7661645148     1.9376910446
C     -4.1240334966     -2.0074760135     1.2916455401
C     -3.1443165617     1.8439277393     2.7347123609
C     -2.9342866254     3.7873328702     0.7146781515
C     -0.7563632272     4.3909186492     1.5759826309
C     -2.0435469231     3.8709196657     1.8182401084
C     -2.1724381854     2.8869303762     2.8394948145
C     -1.0956139164     4.357057516     -0.8951555982
C     -2.4252722919     3.9755371394     -0.6398001831
C     -0.3273458895     4.7441356473     0.2449481666
C     2.1358230984     0.8181383511     -3.7054268539
C     1.2509994176     1.9086826159     -3.4886663617
C     -1.0416252189     2.6771210722     -2.7938904378
C     1.8065408958     3.0179523288     -2.8134272751
C     0.9755801028     3.9224478986     -2.1014325291
C     -0.4282753578     3.7807257197     -2.0570728547
C     -2.5825854176     0.6537501607     3.3440444575
C     -2.9147575217     -0.6372688312     2.933867169
C     -1.9285172914     -1.6863867479     3.1550444544
C     -2.1115149327     -2.9385886277     2.4426424646
C     -3.1617321396     -3.0666215134     1.5070487533
C     -1.0087171974     -3.7937213969     2.2335357753
C     -1.2723173717     0.9774480367     3.8012688027
C     -0.2510678703     0.0271091582     3.8858338864
C     -0.6074973628     -1.3619217912     3.6547684735
C     1.8255718926     -1.8580198687     3.5571411397
C     0.4822371762     -2.3200444087     3.5100027475
C     0.2664307668     -3.520229868     2.8015971544
C     0.3966989842     3.899770175     2.2861004128
C     0.3003660584     2.7854657757     3.1618780664
C     -1.0065940682     2.3488714995     3.4825662438
C     1.4088470666     1.8586088745     3.247972405
C     1.1230013961     0.5056377197     3.7437569634
C     2.1272412841     -0.4547284243     3.6515916772
C     2.8674438685     -2.4640325607     2.7956028724
C     2.5852747583     -3.5384705018     1.90050367
C     1.2842113852     -4.0808082974     1.9439280673
C     3.256806507     -3.5600953557     0.6463066403
C     3.8234901065     -1.4428230082     2.4377846095
C     4.8775079557     -0.2163907921     0.622878732
C     4.5095959536     -1.4786002616     1.192984659
C     4.2331117475     -2.5533220108     0.3026971399
C     1.5549856595     4.0856223747     1.4769146477
C     2.6414554875     3.2051967324     1.5222788148
C     2.6101292713     2.1050188471     2.4863522535
C     4.4667287724     1.0163090634     1.2207021462
C     3.593778221     1.037926476     2.3395122531
C     3.3650377041     -0.201937647     2.9823515392
C     2.9838962558     3.6471391796     -0.9141861462
C     1.7268004335     4.3522291142     -0.9494552699
C     1.0922211473     4.6683001824     0.2226274306
C     4.356618615     2.0050735264     0.1789031884
C     3.4687314593     3.0952353128     0.2993054923
C     3.4348397924     0.7346909341     -3.1094315223
C     4.6151749999     1.3682958588     -1.0670409792
C     3.8869203086     1.7551021438     -2.2320807522
C     3.0930440154     2.9193829669     -2.1406367173
C     4.1507371444     -2.3151343714     -1.108210654
C     4.9163903959     -0.0194597378     -0.7986900368
C     4.459331233     -1.039334562     -1.6729432983
C     3.7164083821     -0.6514386663     -2.8342364611


