98

 C     0.6694484772     -4.0662542261     -1.9040029472
C     -0.4908030342     -3.4601732079     -2.4181681923
C     -1.5185681068     -1.3878105263     -3.3648663991
C     -2.7711014182     -1.8803898605     -2.9099733302
C     -3.8546466105     -0.9999999084     -2.5523921395
C     -3.7346518825     0.342032797     -2.7612915871
C     1.9538382853     -3.5138759881     -2.0966583617
C     2.1504377392     -2.3041563048     -2.7840055778
C     0.9685683977     -1.6098402855     -3.294485872
C     -0.337514732     -2.2057806794     -3.1431875938
C     2.3318731868     0.4345320012     -3.4392787222
C     1.073866639     -0.1805380565     -3.5812085294
C     -0.103920334     0.6773624509     -3.5962972905
C     -1.3923907619     0.0459470466     -3.5819246281
C     -2.5215300995     0.8671900691     -3.3306536026
C     3.4780163881     -0.2433740176     -2.8818023913
C     3.3958011452     -1.5871595815     -2.4985043632
C     4.2341930051     -1.9914430821     -1.4125999893
C     -4.6726052337     1.736591925     0.508698191
C     -4.8418661026     0.8489307102     -0.5877593762
C     -4.2840441061     1.2969296     -1.8212165796
C     -3.4724026954     2.4594679402     -1.9062034364
C     -3.26108129     3.3168847683     -0.8083205829
C     -3.937351817     2.9493436553     0.3950517126
C     -2.1368035578     3.9222566702     1.718098059
C     -3.2812917229     3.1874479171     1.6693541638
C     0.2934767454     4.3608687893     -1.5371444596
C     -1.0080720543     3.9062671126     -1.7940471271
C     -2.0227460078     4.0870056589     -0.756238881
C     -1.581197042     4.5175442031     0.5227862187
C     2.4630099093     1.8237413288     -3.1504661902
C     1.322532126     2.6482603385     -3.0152042019
C     0.0137195554     2.0901579519     -3.2657429149
C     -1.1437405715     2.8186983198     -2.765212625
C     -2.3856625254     2.192819541     -2.854945148
C     1.4444733062     3.7684217392     -2.1570862514
C     -4.9301705315     -0.5989195421     -0.3323129044
C     -4.5065980623     -1.4986183395     -1.3523426756
C     -4.4025719307     1.2050089123     1.8398101341
C     -4.4151893912     -0.1365026457     2.0692436558
C     -4.7721364191     -1.0655432904     1.0113850257
C     -3.4168225706     2.0257116158     2.4958830731
C     -4.1232167089     -2.2873881907     1.3079116209
C     -3.7155800808     -3.1750231098     0.2843306467
C     -3.9125321141     -2.7568410054     -1.0596492478
C     -2.6121756493     -4.018926181     0.5575669655
C     -3.2463593784     -2.0662514295     2.4606619141
C     -0.8954168758     -2.070969159     3.2064741909
C     -2.032268798     -2.7551758773     2.6250694669
C     -1.8147159707     -3.8635596522     1.7569787933
C     1.5326631405     -1.908812793     3.3742713593
C     0.4142594668     -2.6738933317     3.0265481529
C     -1.0533591175     3.5095136228     2.5790287016
C     -1.0650092887     2.2417435129     3.2064455209
C     -2.305742227     1.4695547804     3.1826873426
C     -2.2735489241     0.0234198413     3.3557078346
C     -3.3892925087     -0.7245290718     2.8911229679
C     0.2022137634     1.5920602412     3.4263104761
C     0.1877875987     0.1474504848     3.6962153053
C     -1.014154214     -0.6580923905     3.5416399278
C     1.4119581799     -0.519285405     3.7193025631
C     -0.4892640867     -4.7971806435     0.1301857555
C     -1.7340897077     -4.442730925     -0.4818089702
C     -1.752865208     -3.801590686     -1.7637584482
C     -2.8725613048     -3.0117189855     -2.0466512787
C     0.6645646628     -4.6952103699     -0.5895957763
C     0.635452346     -3.784038341     2.1022622325
C     -0.5042836581     -4.3590548055     1.5059725797
C     1.9012427099     -4.4052849187     0.074086513
C     1.9264914224     -3.9175727844     1.412938774
C     2.8353799464     -2.1174398023     2.8173667781
C     3.0434969786     -3.066514182     1.784356725
C     4.0388985317     -2.731355059     0.8142657291
C     3.8318502042     -3.0836397213     -0.5670835867
C     2.7698908662     -3.8618852733     -0.9222665172
C     3.5285545207     -0.8632127847     2.840490547
C     4.5791344538     0.870964558     1.502156929
C     4.4656400806     -0.51035068     1.8279495615
C     4.7087061843     -1.4684155151     0.8105976159
C     0.1443489081     4.0714695     2.052031209
C     1.3878735109     3.4608905721     2.2283984844
C     1.434171044     2.2324893869     3.0123681403
C     3.7371718978     1.8455944022     2.1123039403
C     2.6748316983     1.4669293866     2.9875379405
C     2.6492560595     0.1246675078     3.401869706
C     2.0570093828     4.3722961184     0.0000349723
C     0.7017954565     4.7800184018     -0.2235189365
C     -0.2062168976     4.7479951302     0.8037174685
C     3.5720719166     2.9295653967     1.1851730247
C     2.4288838134     3.748895466     1.2235790185
C     3.6309560724     1.9957162186     -2.3318032802
C     4.2334916886     2.5872134974     -0.0381687093
C     3.6386795986     2.9514997198     -1.2858554826
C     2.5595441241     3.8692769961     -1.2457846366
C     4.8554069029     -1.0285954744     -0.5709483655
C     4.8420858561     1.3044111272     0.1451832499
C     4.8678345241     0.357562338     -0.9129001309
C     4.2497309129     0.7120068211     -2.1544026405


