98

 C     3.7533204467     2.2895670614     -1.7562847063
C     3.9838373177     0.9688621303     -2.1798062987
C     4.7347246704     0.1648903152     -1.276337138
C     4.6981152226     -1.2702866245     -1.3500200349
C     3.8914741281     -1.8767242213     -2.2983934987
C     2.6262322497     3.0296985178     -2.2566818549
C     0.4241778849     3.0350065928     -3.1646247461
C     1.6844912304     2.4211817656     -3.1290668605
C     1.7955940746     1.0137505266     -3.4750921099
C     3.0184430604     0.3278529833     -3.0847448594
C     3.0242293074     -1.0705345325     -3.1369027044
C     4.0443261024     -2.9508460065     0.3112777156
C     3.3055719247     -3.6537591755     -0.7164747439
C     4.7427083813     -1.7936746784     -0.0018643313
C     3.1921900749     -3.0985673409     -1.9834037293
C     -0.2138756532     -4.5680666724     -0.0383642073
C     2.1455206212     -4.2424338313     -0.1139434313
C     0.9207210219     -4.3542947395     -0.8267415662
C     -0.7278598105     2.3342975486     -3.6193017672
C     -0.6960438217     0.9403664444     -3.851051498
C     0.5897747128     0.2636026635     -3.7687697746
C     0.5847476003     -1.1798997943     -3.5985350961
C     1.8144658711     -1.8090701842     -3.3535375024
C     1.9031790501     -3.056038633     -2.6461373606
C     -0.6297904092     -1.9171638731     -3.281455098
C     -0.5403995999     -3.1422736858     -2.5116661136
C     0.7612719244     -3.6577092153     -2.1113136793
C     3.9356291299     -0.6960723509     2.0751980295
C     3.1509533854     -1.8997419633     2.3777395443
C     4.7174928677     -0.6846667743     0.8986892718
C     3.2727791917     -3.0067279554     1.5142510495
C     2.1409623262     -3.8728166948     1.273095098
C     -0.205459748     -4.3139017473     1.3714929325
C     0.9324447618     -3.7540432874     1.9965811032
C     0.7783167217     -2.6838816756     2.9592366229
C     1.9215419345     -1.8010186707     3.1687830008
C     1.6889988162     -0.5849973874     3.8082647953
C     2.5172375591     0.5866310049     3.5813663124
C     3.546668655     0.5985743099     2.6322844241
C     3.8040481168     1.8504134076     1.9061872792
C     1.6827350901     1.7271293713     3.80752999
C     1.8924087234     2.8878115735     3.0995385695
C     2.9847633073     2.9706360609     2.1831196348
C     0.3454856619     1.2853975692     4.0800301145
C     0.7563417852     3.6058025975     2.5614894077
C     -0.5614798854     3.1564297751     2.7499710493
C     -0.7807481149     1.9773238083     3.5951580083
C     -3.1195381096     -0.937785369     3.1719696915
C     -2.0175440699     -0.2081028125     3.6918644628
C     -2.0082871094     1.2308939886     3.508073869
C     -3.0511553488     1.829701027     2.7506458065
C     -1.5199580135     -3.9334478169     1.7466328463
C     -1.7161444098     -2.9265272186     2.7159409126
C     -0.5623140357     -2.2534266599     3.3101315126
C     -0.767990637     -0.9251930954     3.8535080794
C     0.3687950097     -0.1476854774     4.1351754262
C     -2.9662075579     -2.2459307172     2.6711424616
C     4.399098247     1.7779965319     0.5761250306
C     4.841917831     0.5305148042     0.1042789793
C     2.5667581763     3.8888248398     1.1386863234
C     3.0798881741     3.7686904447     -0.1297335959
C     4.0215659729     2.7182602219     -0.4206370136
C     1.1644922662     4.2146467728     1.3373690627
C     0.2720798467     4.3866090027     0.24810738
C     -1.5347160146     3.5178090761     1.7353001576
C     -2.7962429594     2.8971652286     1.8431649505
C     -1.1304505956     4.0784397336     0.4550428141
C     0.8550597103     4.3195650294     -1.0879737771
C     2.2223764169     3.9735316379     -1.2620757593
C     -2.0003516228     3.8847324645     -0.7026304667
C     -1.3954338571     3.8644487603     -1.9799308405
C     0.0117366262     3.9825784498     -2.1551815062
C     -3.0255428343     2.2697993381     -2.8667133521
C     -1.8660210972     2.9687752515     -3.0135493891
C     -4.151194022     0.323036353     -2.5380366411
C     -3.113357248     0.9174841203     -3.3244518769
C     -4.1349864477     -1.0218348742     -2.3028527044
C     -3.6900990833     2.7596428085     0.7049112191
C     -3.281127459     3.1901993333     -0.5707430894
C     -3.8182753015     2.4414360535     -1.66361728
C     -4.494698689     1.6012594098     0.8988142003
C     -4.8668078231     0.7480325067     -0.1742096263
C     -4.5534397119     1.2419301543     -1.4708834949
C     -4.6044390734     -1.2033361857     1.3548884305
C     -4.1625649157     -0.2999975247     2.4019175475
C     -4.1188572994     1.0504519906     2.1899496056
C     -4.5878368772     -1.5685897067     -1.0375427206
C     -4.9099951359     -0.7080006455     0.052517189
C     -2.3727190349     -4.0344252091     0.5814532977
C     -3.8816327889     -2.7859934655     -0.8458848107
C     -3.5364403859     -3.2389992567     0.4536203627
C     -3.8996779568     -2.4200008278     1.5501968826
C     -1.9379563853     0.1922864584     -3.6993020461
C     -1.9003982845     -1.2284564638     -3.4065605764
C     -3.0405437017     -1.8153654274     -2.7994170186
C     -2.9288566254     -2.9415798657     -1.9400860584
C     -1.7056647405     -3.6085566222     -1.7746017404
C     -1.527298883     -4.2967608622     -0.5313523591


