98

 C     0.0568684243     4.4241326305     -1.5716840978
C     1.1763314762     3.920127831     -2.2725383951
C     2.3661905116     3.7117593643     -1.5371264172
C     0.9349749317     3.0725652802     -3.3788721447
C     -0.3955871442     2.661566875     -3.705445888
C     -1.5235345548     3.0886131827     -2.9667531543
C     -1.2694665433     4.072664118     -1.9650764797
C     1.8079986034     1.9567750945     -3.6494759955
C     2.9337404706     1.6582537959     -2.8386257264
C     3.2545739002     2.6279202865     -1.8557882035
C     3.3356030542     0.2566744209     -2.6324476954
C     4.1799922763     -0.0446709511     -1.4877447623
C     4.2744995672     -1.3874376682     -1.0775267342
C     1.0366147398     0.9166943162     -4.2306027993
C     0.3492787522     -1.361789926     -4.2449578838
C     1.4002552493     -0.438509711     -4.0692900389
C     2.5734209543     -0.7993604835     -3.2677167919
C     2.6453765983     -2.1637902021     -2.7679358544
C     3.5286041522     -2.4172254703     -1.6991554698
C     -3.5310479289     2.4072152766     -1.7261266511
C     -2.6426224276     2.1494330593     -2.7895544839
C     -2.5682342708     0.7829782365     -3.2834226362
C     -1.3911890787     0.4188763803     -4.0778057102
C     -0.339360145     1.3414460768     -4.2521091879
C     -1.0267878889     -0.9369674829     -4.2318623625
C     4.4622398898     0.976182724     -0.4677828743
C     3.9662621346     2.2715897445     -0.6586250548
C     4.4278608861     -1.7452032925     0.3353992401
C     4.5981031959     -0.7838458909     1.289017923
C     4.6642003088     0.6034851494     0.8936510014
C     2.0760193121     -4.1460787497     -0.754018364
C     3.2007467541     -3.3871368281     -0.6625761425
C     3.610560341     -2.8839427934     0.6141873048
C     0.402813729     -2.679673051     -3.6926539134
C     1.5271479463     -3.1036917092     -2.946752042
C     1.2681867855     -4.083665428     -1.9423311548
C     3.7335519226     0.4434465726     3.0023876156
C     4.1214690374     1.3705049277     1.9666262849
C     3.3501098045     2.5459631651     1.7271072917
C     3.425852608     3.0418152032     0.417717
C     2.6752418613     0.7480289363     3.8142937408
C     0.5624587432     0.3606286794     4.5713681979
C     1.7936353796     -0.2934127878     4.2375094694
C     -0.5954563091     -0.3450541902     4.5699907238
C     1.2277704883     -4.3159132663     0.3991920533
C     1.4702663901     -3.6301756074     1.6114743851
C     2.7518026122     -2.9358876629     1.753161205
C     2.9189285677     -1.9017322507     2.7594545061
C     3.9153794555     -0.9045512523     2.5478817952
C     0.3194778092     -3.2580319471     2.431888231
C     0.5335583701     -2.2939283724     3.4960469448
C     1.8107869524     -1.586887647     3.641425733
C     -0.6105786731     -1.7091520115     4.0850043757
C     1.8975422316     1.9660423507     3.6074533749
C     2.1452597412     2.8198233372     2.5212767676
C     1.0106969454     3.5267661624     1.9428763568
C     1.2068308844     4.1401756039     0.6335036969
C     2.3881266291     3.8734481344     -0.1135897593
C     0.0778524014     4.5178615321     -0.1241495119
C     0.5799555443     1.722744128     4.0809298952
C     -1.8392364164     1.598652261     3.6260805714
C     -0.5613038837     2.3051013405     3.4840425511
C     -0.3420453367     3.2648563725     2.4170220457
C     -3.9384966868     0.9118349016     2.5251009155
C     -2.9430775453     1.9098801064     2.7374605938
C     -2.7710551455     2.9399315894     1.7277938378
C     -1.4888349487     3.6336497672     1.5895241832
C     -1.2404368093     4.3144434268     0.3756526872
C     -1.8249921069     0.3076087086     4.2274879428
C     -2.0830676429     4.139910415     -0.7809691206
C     -3.2082338983     3.3813340885     -0.6919125406
C     -3.6242622561     2.8833404134     0.5848760467
C     -4.6792696441     -0.6029298469     0.8733871606
C     -4.6150869648     0.7859918565     1.2634287032
C     -4.4402011328     1.7434601188     0.3067449774
C     -3.973801712     -2.277324822     -0.6686869137
C     -4.470684934     -0.9811623251     -0.4855233502
C     -2.7045335776     -0.7355604445     3.804230009
C     -3.4386510496     -3.0431640626     0.413393723
C     -3.3692626933     -2.5419845308     1.7211104389
C     -4.1417635035     -1.3655722404     1.9520989946
C     -3.7588777751     -0.4343009689     2.9859535304
C     -0.0880733043     -4.5213869382     -0.1061775271
C     -2.3983610269     -3.8769524022     -0.1094670824
C     -1.2207202812     -4.1406298497     0.6444433893
C     -1.030943199     -3.5218889346     1.9522487646
C     -2.1682911694     -2.8125975089     2.5222409065
C     -1.9258468221     -1.9543930653     3.6061221602
C     -0.9293253355     -3.0893528695     -3.3708841135
C     -2.3694991485     -3.7210605892     -1.5335280983
C     -1.1760824593     -3.9324103297     -2.2622961773
C     -0.0600540024     -4.4335494511     -1.5539645398
C     -4.2799635532     1.3799557821     -1.1039540468
C     -4.1834618726     0.035530243     -1.5082473056
C     -3.3335118573     -0.2704688334     -2.6475940494
C     -3.2562987188     -2.6385333362     -1.8609118532
C     -2.9306688207     -1.6728723659     -2.846115282
C     -1.8010071259     -1.9746816191     -3.6502728656


