98

 C     -5.0710276668     1.1256163994     -0.1929399534
C     -2.0943745407     3.9845187085     0.5334219068
C     -3.2908679733     3.3046629683     0.2389697729
C     -3.8881484341     2.6109726844     1.3255386693
C     -4.7890137473     1.5179539927     1.1053202504
C     -1.4315581505     3.8316478827     1.7790725204
C     -1.8299316139     2.8236627195     2.6998928087
C     -3.1086002362     2.2961954706     2.4955583208
C     0.5478163883     2.4979533558     3.3260882999
C     -0.8182617262     2.0185082323     3.3689089056
C     1.5596547504     1.6175891941     3.724833003
C     -0.0477438096     4.1465438696     1.5935743062
C     2.2541490381     3.6098419255     1.8740599433
C     0.9353759293     3.5790471104     2.4082323857
C     -4.9932392528     -1.2399886601     0.4833670308
C     -4.679404317     -0.8213096308     1.8449628239
C     -5.146545269     -0.2945263833     -0.5108259295
C     -4.5475142809     0.5219862794     2.1329771593
C     -3.4382293597     0.9633905941     2.9277354983
C     0.0075508645     -0.3089462238     3.795059046
C     1.2914032238     0.2319605246     3.9252146244
C     -1.0972377838     0.6208764283     3.6334042409
C     -2.4252881232     0.0808915792     3.3736634914
C     -2.5933040699     -1.3426535092     3.1205524718
C     -3.7504760825     -1.7548097103     2.4020143308
C     -2.5892432351     -3.663164127     1.452353977
C     -4.2612751862     -2.4401865973     0.2025260212
C     -3.6681127475     -2.8411705303     1.4534817387
C     -1.4236136191     -2.2271348649     3.1101997144
C     -0.1097064462     -1.7236653577     3.4193311115
C     -1.5039082227     -3.4377632644     2.3813236418
C     -2.0536990184     -4.1477698476     0.2137137359
C     -2.4012713176     -3.5288937913     -1.0163208838
C     -3.5537311648     -2.6384593589     -1.0183738171
C     -3.6566972409     -1.6129221047     -2.0436022199
C     -4.5247083701     -0.512747087     -1.7912288273
C     -4.2387507784     0.7987066797     -2.3174664215
C     -2.5560433943     -1.4337725899     -3.0053931191
C     -2.4579732578     -0.1850576443     -3.6465948926
C     -3.2364139041     0.9511050427     -3.2317450593
C     -0.7144967018     -4.5504794014     0.5095881834
C     -1.3450114451     -3.3816322105     -2.0219616872
C     -1.357434486     -2.2803919675     -2.9572421875
C     0.2143989499     -4.5816282246     -0.4874279272
C     -0.1002493667     -4.0104754551     -1.7734589131
C     1.5943400415     -4.3457427693     -0.1788339929
C     3.1995460533     -3.2257263437     1.1922630684
C     1.9789455849     -3.9051674691     1.1242168079
C     2.4800122961     -0.5149478685     3.5825495152
C     2.3790754653     -1.8216822304     3.0768579914
C     1.0708635936     -2.4558569443     3.0002192351
C     0.9385284354     -3.6024210333     2.1159310387
C     -0.3517593582     -4.0620144812     1.8385169468
C     3.4360447931     -2.2296386355     2.2156954346
C     -3.5013085585     2.8481658292     -1.1272250701
C     -2.4102929763     3.003119394     -2.107014947
C     -4.4412929501     1.8009401187     -1.3077792065
C     -2.3791026225     2.1004046863     -3.180696958
C     -1.1442760229     1.7257426846     -3.804492029
C     1.2289661204     1.6245513422     -3.8443513034
C     0.0750661978     2.3503191257     -3.4841845038
C     0.1335294173     3.3120543399     -2.4046081031
C     -1.1387473787     3.651892839     -1.7396333691
C     -1.0720070043     4.2256961352     -0.467238999
C     1.130377504     -3.5216892623     -2.3001189212
C     1.1758003096     -2.4083465806     -3.1426788436
C     -0.100130207     -1.8108300751     -3.5236765642
C     -0.0490012707     -0.4799547335     -4.0954717798
C     -1.2021282265     0.3245278906     -4.0948263536
C     1.1675266439     0.2213626846     -4.1542575452
C     2.4905943931     1.8994783888     -3.2485266404
C     2.6063839879     2.7917249196     -2.1715751115
C     1.4053968048     3.5252615394     -1.746071653
C     1.4068688721     4.0887112695     -0.4096670878
C     0.1747899886     4.4033473697     0.202438817
C     2.4780346203     3.8366741672     0.4838619109
C     3.2706081564     0.6794818848     -3.3263824948
C     4.2562145512     0.4182958888     -2.4143357767
C     4.5215180073     1.3786846983     -1.3628210882
C     3.71323478     2.5452195108     -1.2283152694
C     3.631050025     3.0638186997     0.0799284966
C     3.5340843068     -1.9507686869     -2.2578144243
C     2.4458732559     -1.6630988863     -3.2014920466
C     2.4089691896     -0.3792493011     -3.7672952875
C     4.4401536493     -0.9116401173     -1.9258683158
C     4.7233167828     -1.7107289409     0.3719859389
C     3.938394616     -2.8656749582     0.0253439548
C     3.3555324106     -3.001253434     -1.2688404864
C     2.1966579146     -3.7948465233     -1.3416383311
C     4.9816468254     -0.7649463141     -0.5872648073
C     3.4868146701     0.3995371581     3.14281444
C     4.396606592     0.0586904764     2.1084797423
C     4.4089341687     -1.3102953271     1.7328041681
C     4.1357594912     2.3605730934     1.2143657387
C     3.2646928955     2.6917077307     2.3229511426
C     2.9239405861     1.7240442219     3.2401496137
C     4.9970142582     0.6490844257     -0.2316290996
C     4.7195355159     1.0714953034     1.0949543123


