98

 C     2.0449198702     3.745726232     1.6174236345
C     2.6881130652     3.776140027     0.3431747412
C     3.9334763182     3.102406155     0.237205002
C     4.3837871656     2.5854280856     -1.005369423
C     3.5831764538     2.7187165829     -2.1478284731
C     0.6566672658     3.8967332019     1.7314961515
C     -0.1900687865     4.1123982953     0.6134574276
C     0.3988655778     4.0358204614     -0.6943440284
C     1.8356623575     3.8978423263     -0.8328473806
C     2.3142423344     3.3562535182     -2.0506006098
C     -1.8332539532     3.6130769649     -1.5877155088
C     -0.4641922466     3.5954662347     -1.7775776206
C     -3.3345076366     2.5950260748     1.9842351763
C     -2.0582608084     3.1478978443     1.9938003751
C     -1.5985184756     3.8955706771     0.8235867155
C     -2.4284951637     3.8908437562     -0.3132235738
C     4.9619415787     0.2857347609     -1.6411154374
C     4.1301859368     0.4261123474     -2.8305067919
C     5.0664861499     1.3265508248     -0.7478401311
C     3.4433835148     1.5968804096     -3.0565501195
C     2.0693708565     1.5277185025     -3.4962526131
C     -0.0657186202     -2.127801608     -3.0585684088
C     -0.8080925276     -0.9316122318     -3.3835319657
C     1.3673027189     0.3060900743     -3.6480559374
C     2.1132667931     -0.9261171976     -3.4435531003
C     3.4844415784     -0.8329241158     -3.0831055791
C     -0.7534560394     1.5588875632     -3.2468955564
C     -0.0803861561     0.325030829     -3.5489397095
C     -4.2472759995     0.3668214537     -2.4276724936
C     -2.9557336601     0.3667310477     -3.033698861
C     -2.2427563309     -0.8976309985     -3.1847921385
C     -2.8793718847     -2.0679645657     -2.6948412891
C     0.037178833     2.6937357483     -2.7974843156
C     1.4087338358     2.66518733     -2.9619062592
C     -2.1803845292     1.589344613     -2.9983204646
C     -2.7085571677     2.7081319237     -2.3101603241
C     3.3657044508     -2.907031104     -1.818919864
C     4.8369226252     -1.0798250813     -1.1693600474
C     4.0600567609     -1.7737496206     -2.1605497064
C     -0.7282833311     -3.1838784257     -2.3125237186
C     1.3839476472     -2.1310867733     -3.0862465396
C     2.0626720836     -3.1429038508     -2.3701056346
C     -2.1077651098     -3.1288114951     -2.1582889664
C     3.4232677308     -3.40839444     -0.473693183
C     3.9764948826     -2.6199335742     0.5653323787
C     4.7174860762     -1.4023807413     0.2041183631
C     4.8167083833     -0.2885355113     1.1636093404
C     5.0084499017     1.0519433831     0.6702527265
C     4.176810303     -0.4151133442     2.415665439
C     2.2258806748     -4.1902325231     -0.2915515398
C     1.6341074627     -4.2869062296     0.9549303799
C     2.1748721785     -3.5150755197     2.048765983
C     3.3174843456     -2.7004661699     1.8730163553
C     3.4010773803     -1.5867522436     2.7443215539
C     -0.0069745793     -4.0021258945     -1.3494916178
C     1.3801380804     -4.0138444715     -1.4428040778
C     0.2177852404     -4.3434192278     1.0693743947
C     -0.6187194942     -4.2639863281     -0.0513340986
C     3.5607698783     0.7076197636     3.0593182743
C     3.6025968596     1.9988758616     2.4722095514
C     4.359918575     2.1612361212     1.2796980873
C     2.4813435608     2.8338817333     2.6593649396
C     1.0584865319     -3.0956398428     2.8575549728
C     1.0411355737     -1.8406012326     3.5025318192
C     2.2916768848     -1.1750674463     3.5388464023
C     2.3672475776     0.2400550879     3.7089097645
C     1.1911537699     1.0181612731     3.7753201995
C     1.3210863429     2.372482134     3.3584630909
C     -3.601577749     1.3129211977     2.6157700453
C     0.1996131682     3.0691624439     2.842608149
C     -1.4143061233     -1.6997799805     3.1416732769
C     -0.1982738264     -1.0873057259     3.5944085371
C     -0.1237086932     0.3736222202     3.7128252838
C     -1.0764306222     2.5299805233     2.873736411
C     -1.2677653812     1.1678965263     3.3788519392
C     -2.5462399497     0.5332417273     3.1504887193
C     -0.1375660027     -3.6181088242     2.2836525797
C     -1.3621808761     -2.9788665135     2.4313761951
C     -3.7442932416     -1.479716699     2.3783886287
C     -2.620340716     -0.9112009901     3.0319120286
C     -4.0167650192     -2.9288389441     -0.8347102181
C     -2.772191869     -3.6018210538     -0.9417700423
C     -1.9942217161     -3.908066193     0.1857235528
C     -4.4825678259     -2.5268204023     0.4224589936
C     -3.6147716749     -2.6731940606     1.5521464318
C     -2.3920043165     -3.3385059556     1.4678214406
C     -5.416524885     -0.4711818077     -0.553544146
C     -4.7946877455     -0.8273151307     -1.8231621711
C     -4.1229028147     -2.0180248995     -1.9571093103
C     -5.2019854447     -1.2801124254     0.5610761277
C     -3.9296061377     2.626760089     -1.5751274714
C     -5.3503129227     0.9692435492     -0.4359477237
C     -4.6999058642     1.477448834     -1.6372194051
C     -4.7765835831     -0.6725501445     1.8120266341
C     -4.6969376405     0.7146183582     1.9220182198
C     -5.062914085     1.5588310526     0.7951976959
C     -4.2277290646     2.7346598664     0.85736602
C     -3.7337288443     3.3089459473     -0.3052325541


