98

 C     -3.0627160174     -2.6659156758     2.1744705005
C     -2.9097014796     -3.3882642116     0.9622008318
C     -3.7669031127     -3.014367166     -0.1047504258
C     -3.3156599277     -3.1329408902     -1.4587710406
C     -2.1312144572     -3.7772529215     -1.7254947249
C     -1.9377083792     -2.4414618086     3.0379293698
C     -0.6539527737     -2.929346247     2.7424727172
C     -0.4744853421     -3.8100477373     1.5963828885
C     -1.6057018197     -4.0018927395     0.6806200865
C     -1.3249793599     -4.3179592319     -0.6639687215
C     1.9596840303     -3.584828174     1.8950279068
C     0.8648127473     -4.076560929     1.1360450838
C     -1.2469312261     1.0380819204     4.0425902598
C     -1.0206373318     -0.355945743     4.0363676543
C     -2.1269228302     -1.189764263     3.6961389575
C     0.3215279458     -0.8508724443     3.8435028226
C     0.4800842633     -2.1978739201     3.3097882704
C     1.7540202903     -2.6188438431     2.9194323586
C     -2.7709737507     -1.3507880037     -3.0971291053
C     -1.5022480609     -2.0347862661     -3.379686754
C     -3.6655825007     -1.948837898     -2.180504486
C     -1.2620634028     -3.2685611336     -2.7465229149
C     0.0672792117     -3.6952156686     -2.4297120014
C     2.3890568543     -3.252693294     -2.1067684209
C     1.2115170485     -2.9754580939     -2.8341934657
C     1.0324940064     -1.6951735607     -3.4983075616
C     -0.3241034959     -1.2804753918     -3.8096175681
C     -0.5355422517     0.0670753753     -4.1279059318
C     1.1195914306     -4.3374198849     -0.281159251
C     0.0234828286     -4.3563019304     -1.1506502913
C     2.3561938936     -3.9474697333     -0.8644685669
C     -1.8085795276     0.7257157033     -3.9149682899
C     -2.8975203769     0.0849652394     -3.30171769
C     -3.8106506557     0.8894298963     -2.4721545101
C     -1.5175949614     2.1093407349     -3.6842739413
C     -2.322557136     2.8443228769     -2.8445237667
C     -3.5050345444     2.2617421004     -2.292063444
C     -0.0967413828     2.2949920981     -3.6561395536
C     -1.7148764518     3.7292735804     -1.8757039654
C     -0.3236307859     3.8571956799     -1.7716202926
C     0.5219310864     3.1669763474     -2.7501830283
C     3.8111694465     1.3701495656     -2.3716443981
C     2.592557196     1.7382225271     -2.9681915974
C     1.9258979818     2.9468802349     -2.4846817433
C     2.4715190467     3.6223928864     -1.3733661608
C     3.4666780897     -2.3007742881     -2.0596498661
C     3.3343931337     -1.0543252472     -2.7080411574
C     2.1024184952     -0.7156921286     -3.4115781348
C     1.8024098661     0.6850939566     -3.5980073466
C     0.5062033161     1.0309527678     -4.0024244313
C     4.1641534222     -0.0160734842     -2.2079533345
C     -4.5893949189     0.2422289282     -1.4225483806
C     -4.5096676478     -1.1637123174     -1.305329732
C     -3.7279182328     2.9251792258     -1.0287180127
C     -4.4114181275     2.3009752999     -0.0243188959
C     -4.9035538368     0.9539521778     -0.225518077
C     -2.1334888183     2.8014510174     2.8269671478
C     -4.0040358266     2.4674630163     1.3441340291
C     -2.8190584441     3.1982706043     1.6592996435
C     -2.5557962832     3.7432927361     -0.719832806
C     1.6067195849     4.1174576401     -0.3236239962
C     0.2059816444     4.1583930922     -0.4582283109
C     -0.6066469663     4.0378692172     0.7296213531
C     -2.0422304884     3.8280713418     0.590353075
C     0.0514328712     3.6451227505     1.9624413919
C     -0.7228104691     3.0054367223     2.9488951551
C     -4.9009892695     0.3196432092     1.0490324119
C     -4.6814092449     -1.0801316208     1.1705589795
C     -4.5840785201     -1.8251814188     -0.0329661802
C     -3.9515833044     -1.5585876619     2.3007905145
C     -4.3207475807     1.2455786856     2.0096490393
C     -2.4732115414     1.602523477     3.5334542131
C     -3.5296610479     0.7668676777     3.0994169815
C     -3.3704412369     -0.6394549219     3.2465001409
C     3.5649418446     3.3583616515     0.66720826
C     2.2487970942     3.8704259373     0.9331619199
C     1.4811603573     3.4388387784     2.0338990772
C     4.1147028774     2.411697336     1.5126037203
C     3.3342695408     1.9198469237     2.6173480296
C     2.0411598836     2.3890998115     2.8933298906
C     5.0117401699     1.1523275338     -0.386567926
C     4.3780865755     2.106198886     -1.2763288502
C     3.6980062522     3.2008874909     -0.7653827076
C     4.8817968058     1.3025168455     0.9840686085
C     4.160468928     -2.4420110118     -0.8163340205
C     4.7718159414     -1.3235857936     -0.1858239836
C     4.9050842335     -0.1625296963     -0.983384779
C     3.8137549307     -2.124177603     1.9601871222
C     3.2331409901     -3.2703524496     1.2931167886
C     3.4376592286     -3.4335845346     -0.0652689601
C     4.6153421078     0.1398680129     1.8104730152
C     4.6090490035     -1.1691814423     1.264673821
C     -0.1838261371     1.933329792     3.7444177032
C     1.1412035911     1.5014393625     3.6156560556
C     1.4257483625     0.0894247777     3.7620041303
C     3.67468985     0.5322498986     2.8190837698
C     2.7253765     -0.3805549924     3.3453611055
C     2.891626485     -1.7287839309     2.9681267007


