98

 C     2.1972217297     -1.9549194918     3.2538461307
C     3.0210590306     -0.8215315302     3.2296548194
C     4.2115996721     -0.9394402909     2.4567850518
C     4.8896861672     0.2310554565     1.9414771709
C     4.3276653643     1.4748062953     2.1752186887
C     0.7903004276     -1.8706914257     3.5608191575
C     0.1240693999     -0.6526478372     3.6942740131
C     0.9355218475     0.5728471284     3.5928558391
C     2.3820747337     0.473407829     3.424644153
C     3.0857586575     1.5918999763     2.9232694362
C     -1.184591161     1.8491778517     3.2561916553
C     0.2681976345     1.7883891207     3.2500191718
C     0.9980143312     2.8197246911     2.5398127103
C     2.3777237137     2.7038296262     2.4060672703
C     -1.7918400039     2.9676609814     2.6542421319
C     -1.9851013183     0.643896976     3.4329616714
C     -1.3272327742     -0.637560743     3.4836561428
C     -3.3545020746     0.6836748017     3.083251229
C     5.4092843861     0.865545584     -0.3775852906
C     4.8269757372     2.1654473313     -0.1294940606
C     5.4549815212     -0.085095701     0.64958518
C     4.3073998758     2.4674655313     1.1245432753
C     1.9837751243     3.2472590355     -2.2499807788
C     4.0826144449     2.574582383     -1.3018079167
C     2.900260499     3.3575129306     -1.1888508023
C     3.0734705012     3.2144374135     1.243594989
C     -1.0532501716     3.7679877369     1.6980532933
C     0.3310401658     3.6582099997     1.572016736
C     0.9380392389     3.9467763687     0.2985599056
C     2.3612801273     3.681635082     0.1295226467
C     0.0577894345     4.0071853988     -0.8463749051
C     0.5859228078     3.5883756692     -2.0906800456
C     4.7275371333     -1.8375920061     -0.9081818315
C     4.6555715858     -0.8498785023     -1.9620810678
C     5.106239764     -1.458805087     0.3714027335
C     4.9999616709     0.468276368     -1.7046370577
C     4.1725894925     1.5177421453     -2.2665542403
C     3.077574171     1.2151932909     -3.1221099988
C     2.0654134015     2.1907879495     -3.1909197411
C     -0.6626926363     -4.313732824     0.6535855164
C     0.7213081219     -4.1284006475     0.8390636261
C     4.3625279434     -1.9935204311     1.4953967543
C     3.6366074079     -2.7711477102     -1.1029531518
C     2.9347680868     -3.3606083516     -0.0422894676
C     3.3437818056     -2.9648897895     1.312360421
C     1.5832086431     -3.8461691648     -0.2987640836
C     2.9451184397     -2.3852074392     -2.301091202
C     1.6073822637     -2.722060872     -2.5215010822
C     0.9503204992     -3.6006284603     -1.5726845982
C     -1.1773837853     -3.1096084639     -2.7672626614
C     -0.4817778086     -3.8271015263     -1.7359221298
C     -1.2557519897     -4.2661573503     -0.6487905184
C     2.6940856379     -0.1706965639     -3.3667653277
C     3.5138565279     -1.1708186895     -2.7984175689
C     0.7175855369     1.8635084592     -3.5892923477
C     0.3140030744     0.555610815     -3.824831652
C     1.3168881481     -0.5102233058     -3.6726819776
C     0.8423371153     -1.8256404674     -3.366037615
C     -0.5408093308     -2.0841425346     -3.4893837685
C     2.3733584284     -3.0216064334     2.3318278839
C     1.0954619052     -3.6335233411     2.1130590542
C     -1.6310753291     -3.8153878332     1.5834872567
C     -1.2318242244     -2.9783214469     2.6511535853
C     0.1380433242     -2.9994953396     2.959388679
C     -3.3526950631     -1.6974827857     2.4156291904
C     -2.0167189026     -1.8098879619     2.9930639984
C     -4.0249320866     -0.4737203848     2.5596312208
C     -2.8513370602     -3.5745410939     0.8748860402
C     -4.6531261455     -2.07295002     0.3237075839
C     -3.7584906422     -2.5694288518     1.3062710805
C     -2.5814747851     -2.7667400604     -2.6469450897
C     -3.3205829165     -3.136400397     -1.4991894284
C     -2.6422762423     -3.8797656964     -0.4966233653
C     -4.368769894     -2.2769185752     -1.081712535
C     -5.2649684693     -0.1471859509     -0.8401783624
C     -5.257190231     -0.7813802645     0.4641785704
C     -5.020721586     -0.0224344194     1.6021678647
C     -5.0588945966     1.2148183973     -0.9494844699
C     -2.7789838469     -1.4885835181     -3.2492706619
C     -3.7342047136     -0.5647748311     -2.762845829
C     -4.6388855738     -1.0475046578     -1.7724726962
C     -0.1836158516     2.8156947575     -2.9922412507
C     -1.5497208855     2.5354676008     -2.7679058418
C     -2.0781101364     1.2854251475     -3.2434110348
C     -1.1261612567     0.2914171613     -3.7441654599
C     -1.511895463     -1.0470593308     -3.746621518
C     -4.1145698627     1.7287099816     -1.9334886765
C     -3.3883998808     0.8564002598     -2.7884665277
C     -3.2296638459     3.6129666689     0.9356658425
C     -1.9056466618     4.0593845455     0.5979386586
C     -1.3794037572     3.9531153589     -0.7104310055
C     -4.0569169754     3.1069603604     -0.0480479791
C     -3.5138030413     2.8996864771     -1.3788307068
C     -2.1982973809     3.2838607572     -1.717624957
C     -4.9315222933     1.4113525715     1.502500404
C     -3.9508155477     1.8482801809     2.4772534839
C     -3.1605688593     2.954149472     2.226613289
C     -4.9695396398     2.0271404758     0.2429890776


