98

 C     -1.9709122076     3.9093195148     1.1544744974
C     -2.5437341386     3.7950659684     -0.1282325876
C     -3.8003307561     3.126895726     -0.2126311637
C     -4.1722246234     2.4004420363     -1.4012472078
C     -3.3312593413     2.3947787931     -2.4888954375
C     -0.5511049418     4.0315171311     1.3193052915
C     0.3426985851     4.0936721007     0.2321813932
C     -0.191464947     3.8994917152     -1.099915194
C     -1.625579808     3.7565689615     -1.2786459638
C     -2.0662466883     3.0990381285     -2.4396476971
C     2.0770460809     3.354436326     -1.8359029514
C     0.7014364457     3.3466734909     -2.0891982942
C     3.3872497589     2.6281930712     1.8946263375
C     2.1188226885     3.2331662158     1.7916828525
C     1.7359927955     3.8617057061     0.5333479326
C     2.6099480234     3.7077402223     -0.5598296718
C     -3.1630418203     -1.2113783857     -3.2483102647
C     -3.8525905668     -0.0116719489     -2.917796658
C     -3.1623375773     1.184648064     -3.258876092
C     0.228852739     2.3911347274     -3.0665518176
C     -1.1507047416     2.3489625639     -3.2531740809
C     -1.8122075763     1.173285221     -3.7323651104
C     1.0403182457     1.2265754163     -3.4178662107
C     -1.0709015019     -0.0168623182     -3.9035227834
C     -1.8129293508     -1.2050076867     -3.7218663884
C     -4.7540908974     -0.0063050977     -1.7644143054
C     -4.9048331237     1.2037908278     -1.0276702288
C     -3.3326773762     -2.4145594853     -2.4676554343
C     -4.1736285164     -2.4100997713     -1.3800078717
C     -4.9055460435     -1.209772436     -1.0170053092
C     -1.9732184611     -3.8976742904     1.1889495939
C     -3.8021674207     -3.1262613549     -0.1850018646
C     -2.5459742674     -3.7944297425     -0.0947145022
C     -2.0680834372     -3.1191293644     -2.4122132431
C     2.0750521287     -3.3716439336     -1.8061929479
C     0.6994373307     -3.3652959878     -2.059544669
C     -0.1937996258     -3.9088309572     -1.0654304173
C     -1.6277993919     -3.7666431889     -1.2454172214
C     0.3402546982     -4.0915231615     0.2683620941
C     -0.5534914776     -4.0192705355     1.3548665739
C     2.4412858837     -1.2595431024     -3.0716525624
C     0.2274340418     -2.418151066     -3.0452954994
C     -1.1521252187     -2.3768135511     -3.2322803757
C     2.9552259961     -2.4050379285     -2.4029012022
C     1.0395946414     -1.2572586598     -3.4068931518
C     2.9566657965     2.3820292691     -2.4240677711
C     2.4420374011     1.2309892201     -3.0826482958
C     0.3699574233     -0.0164998467     -3.7256167338
C     3.1843380994     -0.014047229     -2.9756608859
C     4.4343201753     -0.0113792889     -2.2876998826
C     -5.0184327655     -1.207484328     0.4027228657
C     -5.0244195929     0.0066216869     1.1482596782
C     -5.017716977     1.2141046974     0.3920421723
C     -4.3989457192     0.0121497141     2.4400067846
C     -4.3358152812     -2.3928423103     0.9173023063
C     -2.4875096486     -3.14797188     2.2951033348
C     -3.6502402105     -2.344930579     2.1589072465
C     -3.690925463     -1.1374031736     2.9102611376
C     -3.6902653551     1.165400409     2.9000958565
C     -3.6488521389     2.3662061854     2.138106242
C     -4.3344056528     2.4035311496     0.8961257822
C     -2.4856501078     3.1697584607     2.2672138736
C     -1.362385715     -2.7107851206     3.0809680313
C     -1.3124078201     -1.414919005     3.640742403
C     -2.5290625104     -0.6898466078     3.6480277009
C     -2.5286441153     0.7236974904     3.6417905976
C     -1.3115711976     1.4479699825     3.6280908183
C     -1.3607796843     2.738872145     3.0569019237
C     3.5548727783     1.4178145345     2.6257524904
C     -0.1891330398     3.3154049721     2.4960784165
C     1.1939968179     -1.4216671331     3.3123237724
C     -0.0275284444     -0.6984858155     3.6731399299
C     -0.0271007493     0.7310905789     3.6668049797
C     1.0902868241     2.7416464148     2.6659176955
C     1.1948601335     1.4503426678     3.2996328112
C     2.4376690298     0.7394487558     3.1947756766
C     -0.1910932455     -3.2929241046     2.5252550282
C     1.0886684093     -2.7184632907     2.6900570616
C     3.5540223727     -1.3965017898     2.6381864511
C     2.4372342616     -0.7124657472     3.2011947246
C     3.9119010973     -3.1122222852     -0.4071939621
C     2.6077415807     -3.7139489435     -0.5269949272
C     1.7336985713     -3.8577177042     0.5674773586
C     4.3262349024     -2.6195857477     0.8172190536
C     3.3857080387     -2.6132378715     1.9178219533
C     2.1169068839     -3.2183079799     1.8202111643
C     5.4545797547     -0.7234836767     -0.2843800026
C     4.8770509817     -1.165269377     -1.548227506
C     4.1519758715     -2.3421651565     -1.608647568
C     5.1249713121     -1.4138951381     0.8857549819
C     4.1533533203     2.3254808037     -1.6293093531
C     5.4550101872     0.7178043509     -0.2907655594
C     4.8777454319     1.1487245288     -1.5584769563
C     4.6733177488     -0.6818931744     2.048513666
C     4.6737171409     0.6973391879     2.0424022245
C     5.125811662     1.4187481426     0.8732078976
C     4.3277953943     2.6242546128     0.79400119
C     3.9137417932     3.1062863699     -0.4347080639


