98

 C     -3.8660771645     -2.4181956354     -1.1351681273
C     -4.7508242045     -1.350216743     -0.8495321384
C     -5.0662047337     -0.9658014275     0.4993589647
C     -3.2794597004     -3.162674769     -0.015779599
C     -3.6059547166     -2.7568669841     1.2998228766
C     -4.5140594016     -1.6661746424     1.5555261752
C     -0.1217148074     -4.2252397384     -1.7439086168
C     -1.5192617062     -3.9958393625     -1.5063607052
C     -2.045420511     -3.9011138556     -0.185253787
C     0.7117408972     -4.503043441     -0.7017047118
C     0.2282717466     -4.4024397539     0.6526423416
C     -1.1103995062     -4.0326025038     0.9243589056
C     2.0829445221     -4.0812165153     -0.7581310405
C     3.6941112711     -2.5178725446     -1.5647011003
C     2.5414330927     -3.2547848341     -1.829418467
C     -4.7121482156     1.162784188     1.6819120543
C     -4.1333846933     0.4253347597     2.7889060203
C     -5.1564797918     0.4913026985     0.5560264853
C     -4.0362451064     -0.9535728331     2.7239658441
C     -2.8415481402     -1.6012605938     3.175061026
C     -3.0261070949     1.1889385774     3.2893505682
C     -1.8393993254     0.5783112042     3.7383003345
C     -1.7537508602     -0.87746691     3.6994163333
C     -1.3250603959     -3.2952794377     2.1472058932
C     -2.6121300616     -2.7478910658     2.3401777856
C     1.3167322214     -3.9478083194     1.437198152
C     1.1469906725     -3.0771510245     2.5344875781
C     -0.2183816599     -2.7415090151     2.9034460414
C     -0.4620091396     -1.5326717515     3.6750427032
C     0.6378345249     -0.7478195598     4.0223334274
C     -2.6146217601     3.8022929506     0.1557199058
C     -3.7094889233     2.9197503234     0.2397677315
C     -3.9715067515     2.3831568206     1.5281899005
C     -2.9621119753     2.4214789341     2.5578753796
C     0.5589528314     0.6974609585     4.0092322819
C     -0.619129391     1.3685586801     3.6981246006
C     -0.5125824748     2.6115209218     2.9514134769
C     -1.7410955809     3.1165654122     2.3730674904
C     -1.6713888883     3.9437397107     1.2362739254
C     -4.0911085766     2.1742295965     -0.9530868478
C     -4.8690641481     1.0048659314     -0.7627735632
C     -4.7240606792     -0.1348113456     -1.6337158952
C     -3.2214619673     2.2545375715     -2.1390505904
C     -3.185520789     1.1602072303     -3.02031483
C     -3.928311539     -0.0411545008     -2.7593507814
C     -0.6002145205     4.5019238617     -0.7100018821
C     -1.8997927231     4.0075464194     -1.0650819271
C     -2.0770945235     3.1444508712     -2.1726225255
C     0.4574605202     4.3161235564     -1.5506425148
C     0.309269804     3.4777385848     -2.7215741049
C     -0.8948846086     2.8040250501     -2.9776279058
C     -0.4083428035     4.3500805744     0.7084434695
C     0.8176177062     3.9039932868     1.2497734515
C     0.7749124556     3.0390459935     2.424529153
C     -1.9808574865     -3.1478860355     -2.5462464946
C     -3.1273465713     -2.3482663285     -2.3946964543
C     -3.1546326518     -1.1647707327     -3.1722477862
C     -0.7730436829     1.5020288498     -3.6026261935
C     -1.9690428583     0.7589508904     -3.6875506798
C     -1.9517744063     -0.6494549385     -3.7909309016
C     0.5038589419     0.8088865538     -3.7038732592
C     -0.7317886797     -1.3646957208     -3.781762842
C     -0.8197268594     -2.6947613316     -3.3094641998
C     1.5748129475     2.8833919251     -2.9826623223
C     1.7104928313     1.5313626456     -3.3926283812
C     0.5333007703     -0.6576698609     -3.7266949149
C     2.9459685917     0.8220287065     -3.0644839253
C     2.9417887772     -0.6282016671     -3.0077784859
C     1.7179801412     -1.3718646891     -3.3074049335
C     1.5905779852     -2.7392263153     -2.8132414287
C     0.3232913185     -3.355883038     -2.8291412302
C     3.9572790341     -1.2662078868     -2.2500574368
C     4.9195229005     1.5931277322     -0.2066526464
C     4.8579565093     0.8509253207     -1.4617349415
C     4.8795541553     -0.5338719724     -1.4409171565
C     4.9849459107     0.9140075402     0.9964879747
C     3.9509057161     1.5189853805     -2.3315230653
C     2.5057730116     3.4453073645     -2.0232482705
C     4.0701744103     2.740814856     -0.31601489
C     3.6370289219     2.7787351973     -1.692170401
C     2.7389712614     0.0975845224     3.6205394891
C     1.8376636302     1.2162881243     3.6592382222
C     1.9809824129     2.3190700226     2.7889677214
C     3.8733275366     0.1506328239     2.8606494574
C     4.159361655     1.3408996591     2.0928992521
C     3.1995472423     2.3836216211     1.9666443793
C     3.1829238327     3.1397457572     0.7257647975
C     1.9870809471     3.8893687655     0.3648336422
C     1.7703893338     4.1538629458     -1.0136525059
C     3.5025103562     -2.1827157426     2.0968854684
C     2.2782627679     -2.2343942182     2.9099997525
C     1.9829857467     -1.1176287653     3.7104710154
C     4.3119499506     -1.0218703367     2.1553668169
C     5.0321087346     -1.2408839791     -0.1823755196
C     4.276379126     -2.460199433     -0.2588608486
C     3.5615819463     -2.9638740669     0.8689286584
C     2.4985773856     -3.8354631203     0.5752025385
C     5.0606977506     -0.5412325855     1.0099543128


