98

 C     -1.1117156667     3.4629682726     -2.3548022351
C     -1.7416186539     2.2726850649     -2.7489957014
C     -3.1162643991     2.0743019961     -2.2854327636
C     -3.717684126     0.7664703878     -2.3861498665
C     -4.8769445158     0.4941347625     -1.591508139
C     -5.2059587568     -0.8412578688     -1.1808365269
C     -2.9023443655     -0.3447467079     -2.874287159
C     -3.3948710863     -1.6384701613     -2.6161815369
C     -4.4990010306     -1.89137489     -1.7186335144
C     0.3026049544     3.5906646719     -2.354149452
C     -0.8854247355     1.1369675317     -3.1501909792
C     -1.4589987182     -0.1740322999     -3.1751229709
C     2.4899141613     2.711144485     -2.5285633681
C     1.1326036862     2.5838170657     -2.8740629153
C     0.5642610914     1.2890802673     -3.1998356573
C     -5.0252459853     -1.8317326189     1.0603628233
C     -4.3013291685     -2.9423729865     0.4909599964
C     -5.5584306339     -0.8350620491     0.2324827414
C     -4.1289429804     -3.0179960141     -0.8879693219
C     -2.9158395802     -3.563138966     -1.4069611756
C     -1.9363618832     -4.1175830832     -0.5490762178
C     -0.689373453     -4.3086606795     -1.1331619745
C     -0.3025616834     -3.6175378337     -2.3285931167
C     -2.4903708758     -2.739212875     -2.5027561833
C     1.4566433161     0.1414297405     -3.1803772721
C     0.8831557531     -1.1693609538     -3.1448203118
C     -0.5666644735     -1.3217967313     -3.1892706191
C     -1.1340579141     -2.6142672355     -2.8530100331
C     -4.9805319147     0.8927911975     1.8889807866
C     -4.2857054851     -0.1165821845     2.6532645457
C     -5.5575239824     0.539365423     0.6627262811
C     -4.3263979104     -1.4418516642     2.2667547479
C     -3.1386425667     -2.2566405938     2.3898079644
C     0.6143316127     -0.3877836398     3.1490104954
C     0.5740740975     -1.7943808413     2.8317390814
C     -1.9051658376     -1.7202116953     2.8326161529
C     -1.8538056126     -0.3054405143     3.1855406268
C     -3.0398601526     0.4515618005     3.12438795
C     -0.7334236364     -3.5203500556     1.5673584138
C     -0.6941105632     -2.4181111585     2.4923029545
C     2.9533224037     -3.7726874568     0.7649779761
C     1.7813413649     -3.5745079169     1.5447286699
C     1.7992768434     -2.4886360296     2.5150451672
C     3.0226596612     -1.8266292465     2.7651689474
C     -1.9785544812     -3.8095345541     0.8756804748
C     -3.1654296447     -3.2430193631     1.3592964501
C     0.5105506445     -4.0085855796     0.9994532712
C     0.4822746776     -4.4808479414     -0.3353459122
C     -4.6288468115     2.5724667015     -0.3574978599
C     -4.1355717638     2.997492503     0.9489915013
C     -5.2601462117     1.3629131539     -0.5021230252
C     -4.2136481483     2.1148774855     2.0098131381
C     -3.007979805     1.8347236027     2.7612791079
C     0.7446376479     3.5201604757     1.5411271689
C     0.707987572     2.4242849327     2.4737122796
C     -1.7853262246     2.494988549     2.503117798
C     -1.7701817039     3.5741860986     1.5253377478
C     -2.9443949581     3.7670298173     0.7476106027
C     -0.5985442707     0.3985172518     3.148059973
C     -0.5592119408     1.802908059     2.821050604
C     3.0555694142     -0.4410149051     3.1187040447
C     1.8696875939     0.3164007728     3.1780742439
C     1.9200204617     1.7287213014     2.8153234898
C     3.1522167055     2.2620902536     2.365311261
C     -1.5933112245     4.2107949631     -1.2177369674
C     -3.6653656735     2.98907933     -1.3385067862
C     -2.8065151545     3.9263919915     -0.67806457
C     1.9877753748     3.8045852834     0.8439156696
C     -0.5009636853     4.0045060864     0.9734605385
C     -0.4765194397     4.46761241     -0.364617756
C     3.1760388653     3.2413851406     1.3279958217
C     1.9414951186     4.1028684485     -0.5827893154
C     0.6928364076     4.2899573361     -1.164593876
C     2.918512716     3.5425492618     -1.4396605208
C     5.0350059092     1.8280673978     1.0334049432
C     4.3094457509     2.9347860851     0.4584848507
C     4.1331058494     3.0009649644     -0.9204284983
C     5.5658219587     0.8257444389     0.2108446771
C     4.9926949764     -0.8907162381     1.8807901558
C     4.3000549964     0.1238760877     2.640132621
C     4.3396236866     1.4464665022     2.244437984
C     5.5661626515     -0.5457030393     0.6504922406
C     4.6345884153     -2.5857373928     -0.353114469
C     4.1450635975     -3.0017979291     0.9576643516
C     4.2261722237     -2.1119379769     2.0121868282
C     5.2654542885     -1.3772075828     -0.5078294461
C     1.5966137428     -4.2298918764     -1.1934043996
C     3.6683032205     -3.0090547627     -1.3284819801
C     2.8113563708     -3.9418106513     -0.659171835
C     4.500794695     1.8686791691     -1.7444166645
C     3.3940976649     1.6096430734     -2.6370416726
C     2.9008440204     0.3141859656     -2.8848608503
C     5.2092984546     0.8222625928     -1.2014673303
C     4.879122255     -0.515907527     -1.6020369687
C     3.7175906318     -0.7936698045     -2.391466158
C     3.1164764417     -2.1007758597     -2.2800685319
C     1.7405083088     -2.3023143999     -2.7383158976
C     1.1117512334     -3.4898658185     -2.3341798584


