98

 C     3.7569105471     0.0476858868     2.700633681
C     3.666468593     -1.326984088     2.4031853238
C     4.3316974473     -1.741327975     1.2158747411
C     3.870334096     -2.9004777463     0.4901869067
C     2.8566482699     -3.6641834468     1.0058093705
C     2.7864436504     0.6854998876     3.5338906925
C     1.6318182615     0.0187632645     3.9755288993
C     1.4558636208     -1.3950505354     3.6175686643
C     2.5024506591     -2.0632078751     2.8937449591
C     2.1713320875     -3.273590578     2.2187014042
C     -0.9699831569     -1.1719251628     4.0276020145
C     0.1084987129     -1.9576677286     3.581750753
C     -0.7969707148     0.2442364283     4.349668322
C     0.4677660816     0.8506017085     4.2803015591
C     0.4601399353     2.2284293885     3.9362476281
C     0.6844090161     -4.0465517692     -1.9392651466
C     1.917694586     -3.9472894206     -1.2794225842
C     1.9132780478     -4.279118382     0.1096556793
C     0.6899356036     -4.4115259172     0.8213887277
C     -0.5522326119     -4.4565632784     0.173841572
C     -0.5033935638     -4.4230707508     -1.2550888109
C     -2.7760140183     -3.6106656515     -1.3509067901
C     -1.6101238421     -3.9006118771     -2.0022896469
C     -0.239376066     -3.0797969042     2.7189831816
C     0.8396432955     -3.7419109363     2.1028447616
C     -2.2884355892     -1.3782742194     3.5737416276
C     -2.6207207989     -2.344757734     2.5806156656
C     -1.5762176623     -3.2385075176     2.1541598009
C     -1.7256356988     -3.9464832668     0.8776038922
C     -2.8637146829     -3.6754793197     0.0984470619
C     2.8971745555     -3.0097684936     -1.8015025222
C     3.9482797017     -2.63291268     -0.9356035186
C     4.6013196538     -1.370158654     -1.0574213788
C     2.5004997352     -2.0763598287     -2.8647548785
C     3.2571127119     -0.9141985402     -3.0351932083
C     4.3010865554     -0.5417574206     -2.1117010181
C     -1.1060883253     -3.0248246709     -3.0393879983
C     0.3037120277     -3.1161212443     -3.002018093
C     1.1253309943     -2.039024876     -3.3625109286
C     -1.7707341917     -1.8246229112     -3.3836264806
C     -0.9620614748     -0.6869987483     -3.7842777967
C     0.483618865     -0.7991892361     -3.7969274649
C     1.3016768509     0.4068467879     -3.8705182466
C     2.669905632     0.2963641182     -3.5504868524
C     -2.9224647451     0.7625138604     -3.3688998776
C     -1.5813419392     0.6452080037     -3.7824508206
C     -3.6640611169     -0.3491708615     -2.8302032177
C     -3.1154492266     -1.6490497308     -2.8320592218
C     -3.5950429209     -2.5335737093     -1.8236477088
C     2.7797993125     2.6023583367     -2.7698994242
C     4.2868426755     0.8917061483     -1.9492063266
C     3.3955871983     1.3907124201     -2.9489476803
C     0.6922180762     1.7341107227     -3.8072969067
C     1.4716156507     2.8117225988     -3.3127295292
C     -0.7529669538     1.8542999582     -3.7483676582
C     2.9053519759     3.2994792253     -1.5178104344
C     3.599090916     2.7304724439     -0.4359652432
C     4.3594110025     1.4934353981     -0.6699664132
C     4.6574198376     0.6112652019     0.4565596077
C     4.7986734805     -0.7915077009     0.2572845773
C     4.2320206865     1.0039645842     1.7393552604
C     1.864425974     3.8242084303     1.059834991
C     3.1169838194     3.0721044989     0.8970772482
C     3.5447226012     2.2543962955     1.9678579303
C     1.1574070579     3.7064215295     2.2705140189
C     1.5993828361     2.8254280345     3.2995560856
C     2.7467883826     2.0827835759     3.136228538
C     -0.4776467842     3.9606840888     -2.4506783123
C     0.883324417     3.852611249     -2.517990768
C     1.6868914712     4.0663629637     -1.3477622765
C     -1.1188007908     4.2562600527     -1.2021833611
C     -0.3867855538     4.3152752244     -0.0117546466
C     1.0858988557     4.2386534067     -0.0905981384
C     -1.2989926631     3.0341684074     -3.1819179002
C     -2.448528091     3.6865360926     -1.2547199315
C     -3.1082521415     3.1856935525     -0.1111574444
C     -2.4374398769     3.3269779748     1.171590371
C     -1.0926274711     3.9321948989     1.2081020017
C     -0.2963612925     3.7357084853     2.3369568572
C     -3.9142629346     1.5481171444     2.0431928883
C     -2.8622625064     2.4929995337     2.2685652619
C     -4.252886675     1.5468560794     -1.615227885
C     -3.3978880597     1.9364097053     -2.6760682422
C     -2.5706339422     3.0268087291     -2.5200355925
C     -4.4935950706     1.3472172222     0.7811549256
C     -4.1138694484     2.1415597016     -0.3302054251
C     -4.333348695     -2.0425031387     -0.7000094385
C     -4.8239056467     -0.0771918531     0.6286953753
C     -4.7694966826     -0.6977919386     -0.6478040482
C     -4.4894465156     0.1215710313     -1.7685567519
C     -2.9335029082     -0.077485694     3.5953570688
C     -3.9068099381     0.2463217612     2.6989315277
C     -4.397705627     -0.7582960456     1.7894392717
C     -3.7683393605     -2.0507085433     1.7237791896
C     -3.849506835     -2.7159760397     0.4884614004
C     -0.7096663042     2.8577886537     3.4010238572
C     -1.9518004394     2.2055473977     3.3665815019
C     -1.9850644681     0.9269025465     4.0069673439


