98

 C     -4.557479138     -1.066681019     1.9563397529
C     -3.8435103975     -0.3484406969     2.9942518048
C     -5.0879423782     -0.3863027382     0.8734121131
C     -3.7193257371     1.0231930208     2.9231839302
C     -2.4651849233     1.6328895444     3.2627529876
C     1.1302745252     0.680303761     3.7486145459
C     2.3924924005     1.2434669296     3.4867053562
C     -0.0434611013     1.5062423646     3.5284864852
C     -1.3337291684     0.8792386848     3.6517075366
C     -1.4584718794     -0.5808648942     3.6943814121
C     -2.7113377025     -1.1442005814     3.3892041032
C     -1.0733044483     3.3442050423     2.1788760926
C     -2.3153207726     2.7962239164     2.444197675
C     1.5097859045     4.1261855714     1.3457469525
C     1.3921050487     3.2601961118     2.472169298
C     0.0829857859     2.7814604957     2.8590914292
C     2.5257291172     2.5032709036     2.8174226176
C     -2.6977537373     -3.789071128     0.277872049
C     -3.7490772804     -2.8668822994     0.4447698559
C     -3.8882001322     -2.3188683316     1.747729938
C     -2.7950037001     -2.3920751271     2.6790750641
C     -0.3566080747     -2.6997301254     2.8960981442
C     -1.6425315996     -3.1511017075     2.4125176991
C     -1.7028599937     -3.9947435753     1.2764643443
C     2.0657629867     -2.7435685605     2.6525682968
C     0.8368860826     -3.3090471719     2.3252830365
C     1.0087310228     -0.7774960078     3.7256296994
C     -0.2713358685     -1.4100202765     3.5470403683
C     2.159519316     -1.5353593175     3.4097321325
C     -4.1974119316     -2.1065634917     -0.7180808689
C     -4.9254991777     -0.9156315571     -0.4692734926
C     -4.8295009187     0.2131277005     -1.3505894588
C     -3.4179447278     -2.2045350155     -1.9576942851
C     -3.4120554109     -1.1067701129     -2.8307639638
C     -4.1066466163     0.1026462211     -2.5194976998
C     -0.7817799071     -4.570606195     -0.7667793101
C     -2.0690293172     -4.0114666369     -1.0119069432
C     -2.2919719454     -3.1166334263     -2.0755973399
C     0.2426879791     -4.3789599514     -1.6708017764
C     0.0487254701     -3.4765636019     -2.7710907089
C     -1.1474618393     -2.7795507344     -2.9406419976
C     1.5877432903     -4.2749029495     -1.2115802929
C     0.7709694208     -4.1371010738     1.113438602
C     -0.5006318877     -4.4731340493     0.6372905522
C     3.2276096978     -2.8227466979     1.7779023789
C     3.1293894217     -3.4283083064     0.5072718844
C     1.8910532434     -4.125074755     0.160519774
C     3.938623027     -2.851511417     -0.5125044989
C     -2.0983462393     3.1893746355     -2.47271441
C     -3.2410963574     2.4084599628     -2.2304352673
C     -3.3363605935     1.2213016611     -2.9943025138
C     -1.048455241     -1.4662534014     -3.5653252935
C     -2.2249953466     -0.7238964739     -3.5794677174
C     -2.1952004049     0.698064478     -3.6844547403
C     0.2417565046     -0.7737309637     -3.724764193
C     -0.9652385994     1.3914258374     -3.7392176485
C     -1.012704586     2.7206845852     -3.2612224685
C     -3.8851133527     2.4884429114     -0.9193653803
C     -4.7631034137     1.4394344805     -0.5617729034
C     -4.9679209735     1.0600173729     0.8022619243
C     -3.1941541598     3.2192123522     0.1468977549
C     -3.4123151614     2.8170829155     1.475673734
C     -4.2986199493     1.7503789579     1.8133138441
C     -0.1766326059     4.3065654837     -1.7965581212
C     -1.5420500554     4.0765977515     -1.4582722299
C     -1.9607071147     3.9534797419     -0.1234386826
C     0.7419775991     4.6151539753     -0.7998944025
C     0.3397234101     4.5157714999     0.5765677325
C     -0.9394028006     4.1048569498     0.93362278
C     1.3273826987     -2.871074775     -3.0714877517
C     1.4569343011     -1.5175991014     -3.4662703788
C     0.2886080438     0.6647366087     -3.744339476
C     1.5207084988     1.3738630077     -3.3607193403
C     1.440272021     2.7538262575     -2.864402265
C     0.1862899017     3.3914470036     -2.8340989563
C     2.6983222992     -0.8254778973     -3.1634201765
C     2.7135322075     0.6267407763     -3.0999428647
C     3.7669396247     1.250419586     -2.338922278
C     3.6021473047     2.4930585451     -1.7073407393
C     2.4536803916     3.2760659742     -1.9430302035
C     2.0770168153     4.1814768388     -0.9125575805
C     3.4366519723     -2.8122813147     -1.8813901514
C     2.290936117     -3.4847298535     -2.2063284985
C     4.5926786608     -0.8813369388     -1.5265408918
C     3.7050827206     -1.5396523143     -2.4536852566
C     4.6535189457     0.4767234674     -1.4938235709
C     4.0432333678     -1.6777949766     2.013900695
C     4.7324838698     -1.0082899197     0.9602213359
C     4.6914830532     -1.6648419027     -0.2993780722
C     4.2947933483     1.1513804267     2.1058565104
C     3.527205699     0.4431776108     3.1079214734
C     3.4108750155     -0.9227221013     3.0716472903
C     4.8699063137     1.1786776476     -0.2470770261
C     4.8469134134     0.460096118     0.9998469375
C     2.5945052933     3.9945612171     0.450185971
C     4.2611418704     2.4440014281     -0.3935554049
C     3.6739894966     3.1148488813     0.7144012489
C     3.6887841479     2.444458249     1.9630723474


