98

 C     3.833929029     0.681013473     -2.6195202125
C     4.8674195043     0.1265241951     -1.8263621174
C     4.938874241     -1.2837079582     -1.5626935971
C     2.8506347696     -0.2211550071     -3.2380492076
C     2.9874525332     -1.599425862     -3.0037417587
C     4.0088174575     -2.1318467877     -2.1506209499
C     -0.008366441     2.1632362963     -3.391185636
C     1.2911616188     1.6413714245     -3.528001585
C     1.5213353493     0.2528774666     -3.6151899989
C     -1.1501184759     1.3648913034     -3.4717225992
C     -0.9731143579     -0.0601356895     -3.6078854894
C     0.3560042002     -0.6124210905     -3.6018076996
C     0.5258453834     -1.9795869416     -3.1300374334
C     1.815438899     -2.4378904727     -2.8725582861
C     -3.3784027138     -0.313805263     -3.1747750616
C     -2.1179019699     -0.918103945     -3.3403131549
C     -3.3518162923     3.188632553     -1.0740435289
C     -2.2988844046     3.0423854127     -1.985663414
C     -2.3732115787     1.9380818313     -2.9440091332
C     -3.5064793022     1.1185571474     -2.9527926593
C     4.7178202766     -2.487964575     0.5721138497
C     3.7453103473     -3.3637119628     -0.0454932193
C     5.3412549357     -1.4909454299     -0.1804761697
C     3.4304160807     -3.2196158536     -1.3906123953
C     2.0768950638     -3.3968068673     -1.8303244196
C     -1.356767137     -3.8110871026     -0.4324231077
C     -2.6763055146     -3.6054536079     -0.8504220563
C     -0.302749497     -3.5283283148     -1.3741040673
C     1.0482004955     -3.7545510985     -0.9462418163
C     1.3545997596     -3.8055832678     0.4784315034
C     2.6741090149     -3.5949146672     0.8940040806
C     -2.9584744715     -2.8503065819     -2.0467971454
C     -0.5701691637     -2.6875755801     -2.506590649
C     -1.9111605148     -2.2395318549     -2.7640285392
C     5.1764357178     0.0765441515     1.7133081036
C     4.4392687531     -0.928218313     2.455689029
C     5.5828167629     -0.1899230686     0.4030437382
C     4.2313845404     -2.1846573793     1.9041091441
C     2.9561658181     -2.8258428379     2.0815007521
C     -0.5282844424     -1.9430575511     3.154525322
C     -1.8178130955     -2.4045167337     2.9024022829
C     0.5678358087     -2.6581056341     2.539375884
C     1.9087591662     -2.2069043206     2.7915726143
C     2.1153070973     -0.878827874     3.3524305313
C     3.3757258238     -0.2763220074     3.1798576376
C     -1.0503738628     -3.7434134216     0.9915561364
C     0.3005403768     -3.512028432     1.4167556122
C     -2.0791239098     -3.3755444306     1.8714066198
C     4.8704535447     2.0576843727     -0.2921942874
C     4.5017778437     2.3552789615     1.0761921681
C     5.3535305876     0.8095160614     -0.6301944439
C     4.603452596     1.3619395003     2.0461789094
C     3.5035967788     1.1533716805     2.9412046965
C     3.3486423327     3.2014024296     1.0384772564
C     2.2957323482     3.0656349776     1.9517391491
C     2.3702142055     1.9725791818     2.922883335
C     -1.5241040853     0.2947591703     3.6136452814
C     1.1471975305     1.4054080755     3.4572405031
C     -1.2941269672     1.6821741926     3.51029696
C     0.0053260413     2.2025982442     3.3674206255
C     -0.358649584     -0.5704670508     3.6103429908
C     0.9703957058     -0.0179576317     3.6099914197
C     2.2034488126     2.5086028379     -2.8112052472
C     3.4370590044     2.0589009824     -2.3310669679
C     3.9267211347     2.7185028309     -1.1607139975
C     3.0515216318     3.5041341727     -0.3527420707
C     -0.0589303196     3.3237017425     2.4392222604
C     0.9944986071     3.6143158629     1.5812792997
C     0.6831331127     3.9843587115     0.1981365664
C     1.7458307209     3.8370493791     -0.7734713344
C     1.4132471233     3.4684080518     -2.0995501123
C     -1.4164648141     3.4924267875     2.0606596376
C     -1.7490913123     3.8455592884     0.7303794516
C     -0.6864102619     3.981692686     -0.2428739746
C     -0.9977300553     3.5955263878     -1.621608737
C     0.055739219     3.2950913636     -2.4761146527
C     -3.0547304417     3.5075880964     0.3135494984
C     -2.2065314747     2.5408651608     2.7834353757
C     -3.4400776386     2.0854247182     2.3085660281
C     -3.9298269509     2.7312866876     1.1306166034
C     -4.0112372532     -2.1072193342     2.1769452104
C     -2.989948823     -1.564753616     3.0238103663
C     -2.853332902     -0.183828984     3.2420464113
C     -4.9414170534     -1.2661202129     1.5791817297
C     -4.8701653925     0.1471027191     1.826403204
C     -3.836757503     0.710936498     2.6130467716
C     -4.720180374     -2.4951247765     -0.5414536769
C     -3.7475432401     -3.3634737632     0.0863126463
C     -3.4326709058     -3.2036814012     1.4296616811
C     -5.3437624547     -1.489494319     0.199471699
C     -5.1791647522     0.0558600046     -1.7124356048
C     -4.4418539035     -0.9573741496     -2.4430618237
C     -4.2337856071     -2.2072751497     -1.8768850498
C     -5.5855135316     -0.1953895641     -0.3991605229
C     -4.8734662478     2.0602685466     0.2698544428
C     -4.5048283443     2.3419603046     -1.1019052885
C     -4.6063647218     1.337381108     -2.060258482
C     -5.3563636448     0.8160507063     0.6223683623


