98

 C     2.2797773749     3.3181821878     -1.9406815044
C     2.8759819571     3.555759517     -0.6765950522
C     4.0982339327     2.8797566419     -0.4282338864
C     4.4989730309     2.5345755014     0.918333828
C     3.644606711     2.8050278666     1.9737792873
C     0.8944742713     3.5289330669     -2.1555064012
C     0.0369782822     3.9575845278     -1.1411469549
C     0.5810099821     4.0689033468     0.2061400895
C     1.9878132064     3.8879194719     0.431593247
C     2.3976609469     3.4910805179     1.7398699546
C     -1.7094701368     3.8822927666     1.0500230138
C     -0.3404867722     3.8187938127     1.2924404043
C     -3.1699262489     2.4255423411     -2.4032025221
C     -1.8533814251     2.8912953076     -2.435276124
C     -1.3863543077     3.7793576444     -1.3732393277
C     -2.2500973086     3.9986178103     -0.2921056624
C     5.0423839845     0.3216060202     1.8557029587
C     4.0567981387     0.553629879     2.8944391237
C     5.2435874818     1.2867010842     0.8732938611
C     3.4081056424     1.7796952527     2.9801621955
C     2.0275827118     1.8193630735     3.3283623567
C     -0.2876185088     -1.7300339803     3.2074120796
C     -0.9722828741     -0.4366779727     3.4018424854
C     1.2523585457     0.6554768846     3.527955258
C     1.9201657038     -0.6265132948     3.3794601795
C     3.3060634776     -0.6484158148     3.0900147632
C     -0.793912576     2.0168292521     2.9820744339
C     -0.1913942713     0.7553435006     3.4196036058
C     -4.3263602274     0.9444398213     2.2540912238
C     -3.0433093577     0.9401137735     2.8792489098
C     -2.4174543252     -0.3355389835     3.2095047129
C     -3.1457579941     -1.5089825234     2.8988133795
C     0.0736593634     3.0296702445     2.4259792784
C     1.4449819926     2.9441232145     2.6446511387
C     -2.1923537293     2.1010102105     2.7020713469
C     -2.6370270162     3.1548206127     1.8413500953
C     5.2911564132     -0.4453731846     -0.8720751055
C     5.1443963888     -1.4605346142     0.1576274103
C     5.320102124     0.8913122235     -0.5189316353
C     4.9538243865     -1.0727225371     1.4811194283
C     3.887129203     -1.6741534872     2.234411924
C     4.3920417631     -2.5532344249     -0.3801002156
C     3.403820311     -3.220220958     0.3773565498
C     3.1050580681     -2.7107327401     1.720827744
C     1.1387982774     -1.7978523395     3.0745681566
C     1.7711340109     -2.8753410371     2.2939459681
C     -2.4509837772     -2.7192958192     2.5450910786
C     -1.0644872251     -2.8464664154     2.722817393
C     -0.4433867304     -3.8373374091     1.9251938497
C     0.9520517706     -3.8356975581     1.7056004846
C     3.0394243929     -2.7564832653     -2.4181684901
C     4.5539731133     -0.8944438934     -2.0387425281
C     4.1455596614     -2.2458873109     -1.7795067232
C     2.1894049738     -3.6987694326     -1.7463251434
C     1.2043395702     -4.3113439028     0.3490212281
C     2.3573687013     -3.9232763061     -0.3531663825
C     2.2313817963     -1.9211958724     -3.2536171447
C     2.4902334209     -0.547648746     -3.3805188935
C     3.7201877847     -0.0145151415     -2.771551116
C     3.7853700863     1.4006397941     -2.4146678989
C     4.5696279555     1.8413799655     -1.3035643427
C     2.6924433729     2.2108896259     -2.7565020232
C     0.8876495393     -2.4405875816     -3.2022223726
C     -0.2411733771     -1.6326279288     -3.3366744925
C     -0.0256749914     -0.2134887982     -3.6073013975
C     1.3359663211     0.3012491973     -3.6265457
C     1.5202356501     1.6861862952     -3.4193097474
C     -2.4682652073     0.1611100589     -3.1917318426
C     -1.1362061405     0.6870937875     -3.442299862
C     -0.8859186426     2.080295833     -3.1458927545
C     0.4355600421     2.5276399507     -3.1133816282
C     -3.4818851796     1.0714236629     -2.8256220047
C     -0.0581390885     -4.4424174517     -0.2827443917
C     -0.2729808269     -3.9275021079     -1.5969606335
C     0.8814802806     -3.5799417691     -2.3123397314
C     -2.6505551413     -1.2497213642     -2.8591556776
C     -1.5217618104     -3.2612116278     -1.906821973
C     -1.5069173791     -2.1203671751     -2.7926215281
C     -2.6371748881     -3.4398672658     -0.9923348624
C     -3.7956135797     -2.6895589518     -1.2074097202
C     -3.8293199171     -1.6406441133     -2.1815057954
C     -4.3153961697     -2.5588462314     1.1893381069
C     -3.1335027527     -3.3259212452     1.4439121001
C     -2.3726968123     -3.8873372976     0.3794938867
C     -1.0766340389     -4.2753313385     0.714916131
C     -4.6954476676     -2.3108384117     -0.1200372669
C     -5.5271835714     -0.0725493409     0.5038014471
C     -4.9523150905     -0.2701803764     1.826368506
C     -4.3719722953     -1.4816325006     2.1617321157
C     -5.325891808     -1.0582003355     -0.4694565795
C     -3.8570395238     3.0363762753     1.0791345482
C     -5.3573560622     1.3177418284     0.1628094993
C     -4.6893868921     1.964040406     1.2871853162
C     -4.8248710873     -0.6800057126     -1.7729855716
C     -4.6553932618     0.6547305327     -2.0967702361
C     -4.993640066     1.6854840816     -1.1353184348
C     -4.0791661798     2.7848962804     -1.3508028451
C     -3.5888118569     3.509682939     -0.2672539555


