98

 C     -2.7039074475     -3.8016151462     0.1568746925
C     -3.770200159     -2.892217031     0.2580647201
C     -4.0017110658     -2.3632216441     1.5629381716
C     -1.7716410965     -4.0071540448     1.2243261264
C     -1.8421198639     -3.2668164715     2.4139132247
C     -3.0522254855     -2.5389518364     2.6092825442
C     -4.1428881021     -2.1252281409     -0.9258696327
C     -4.8740866142     -0.925110025     -0.7144886903
C     -4.7616637667     0.1905115713     -1.5958301372
C     -3.3064264486     -2.2168533589     -2.1176752317
C     -3.2582327841     -1.1124684989     -2.9915586186
C     -3.9802033929     0.0918857375     -2.7306053298
C     -0.7049305471     -4.5183945969     -0.7548720016
C     -1.9917100541     -4.0052054938     -1.0875378834
C     -2.1693274094     -3.1220466685     -2.170266895
C     0.3513259622     -4.3406571445     -1.6130259742
C     0.1996978705     -3.4744428305     -2.7510959071
C     -0.9890688853     -2.7848455722     -2.9820010208
C     -0.6777526313     -1.6873386966     3.8670547704
C     -0.5847936382     -2.8100158798     3.0109588907
C     0.7303633115     -3.9392249872     1.1887104782
C     -0.5000533575     -4.3871050011     0.6641774039
C     -2.0234447273     3.2326040341     -2.6220632714
C     -3.1987816234     2.4493745243     -2.4817035563
C     -3.2022481344     1.2260896783     -3.1900237126
C     -0.8623236845     -1.4683311585     -3.5991146834
C     -2.0352349249     -0.7253467954     -3.6690131639
C     -2.0064531602     0.7021830468     -3.7735838939
C     0.4349828934     -0.7784584691     -3.6968213878
C     -0.7727125251     1.3939154838     -3.7326250627
C     -0.8485564351     2.718367061     -3.2363452802
C     -3.970634656     2.5409485624     -1.2293283773
C     -4.7434108571     1.4294717687     -0.8185169043
C     -1.5689651255     4.107055924     -1.5546443864
C     -2.2428661524     4.1284524585     -0.3604111209
C     -3.4565388078     3.3558390983     -0.181344341
C     -0.1301925786     4.1545671107     -1.5581717855
C     -1.5010673436     4.1375479426     0.8794958278
C     -0.0876211295     4.1776440732     0.9031396183
C     0.6229260642     4.2494234988     -0.3596119573
C     3.7181514827     2.4595930147     -1.5154654015
C     2.4936307979     3.138305821     -1.6075397997
C     2.0009487969     3.8638315189     -0.4394918588
C     2.6971025126     3.7066283593     0.7867579172
C     2.8866999424     0.6089977769     -2.9699430058
C     1.5526582805     2.6692179874     -2.6063159822
C     0.3075459538     3.318230885     -2.6192561916
C     3.931204347     1.2343063836     -2.2207042211
C     1.6799892261     1.3527122298     -3.2082830291
C     1.4893349122     -2.8790002925     -3.0204915711
C     1.6368417112     -1.5264789395     -3.4086473206
C     0.4755895094     0.6611487676     -3.675367948
C     2.8813658806     -0.8416403307     -3.0747542831
C     3.8826624732     -1.5619406178     -2.3687710709
C     -3.4780154176     2.9298035837     1.173823815
C     -4.1286236471     1.7475668149     1.5755744425
C     -4.8608645883     1.0648200497     0.5544770367
C     -5.0318835263     -0.3709828599     0.6148141758
C     -4.600475864     -1.0530829831     1.7225505483
C     -2.3350532823     1.443644811     3.3270481003
C     -3.5901307321     1.0074572269     2.7108449369
C     -3.9430097015     -0.3606930293     2.8090290706
C     -1.5679719273     0.4795508506     4.0162723493
C     -1.8999838364     -0.915620689     3.9954321118
C     -3.0601629349     -1.3246136106     3.3971264983
C     -2.2380516201     3.3756047219     1.8142725129
C     1.9664027615     3.4623072173     1.9885818097
C     0.5588353436     3.5771804359     2.0417634193
C     -0.1718564262     2.7188324019     2.947607418
C     -1.6119379131     2.6024092341     2.8195993153
C     0.5703815168     1.6565792613     3.6107185501
C     -0.1455609117     0.5658496877     4.0887786289
C     3.9462217036     2.2286926133     2.0958029102
C     2.6957300558     2.4726572392     2.7502100026
C     1.9928454597     1.4523152028     3.4021047127
C     4.512534464     0.95986456     2.1317075939
C     3.7803849503     -0.1156944278     2.7478782945
C     2.5427691966     0.0964619553     3.3620298816
C     5.1699114292     1.1519783764     -0.2227163316
C     4.4813328589     2.4209354824     -0.2832434474
C     3.9394859585     2.9816722373     0.8602258528
C     5.1926797386     0.4312773783     0.9745896626
C     4.8690392228     -1.672826509     -0.2497186469
C     4.8193350326     -0.9129817185     -1.4931339443
C     4.8940760939     0.4618824505     -1.4660978465
C     4.9564296416     -1.0005955124     0.9545840058
C     2.4064539438     -3.4626529583     -2.0926712027
C     3.9884873445     -2.794161054     -0.3746928766
C     3.5560633604     -2.8132726732     -1.7500258136
C     0.394859887     -0.787681306     4.004724129
C     1.6553649575     -1.0451790041     3.460249758
C     1.8392654058     -2.2478324501     2.6676627594
C     0.6989634706     -3.0897227661     2.3856586787
C     4.0380018429     -1.3387802135     2.0158279333
C     3.0580927921     -2.3500268034     1.8677640242
C     3.0726211721     -3.1522645177     0.6539759527
C     1.8829598886     -3.9083224161     0.2897692565
C     1.6648155221     -4.180900936     -1.0861825337


