98

 C     -4.6740120001     2.2894210598     0.2405228472
C     -2.7208711646     0.6989301547     3.5512083426
C     -3.526952809     1.4380173715     2.679472361
C     -4.5925763178     0.7095472235     2.0757773286
C     -5.1881328352     1.1545176445     0.838657529
C     -2.720382426     -0.7256348877     3.5454127557
C     -4.6724427036     -2.2904988709     0.2219066069
C     -5.5452508689     -0.0000721023     0.0426276295
C     -5.1873417302     -1.1608488882     0.8292469722
C     -1.401452119     -1.1741003055     3.9126302469
C     -3.5259618279     -1.458164401     2.6677000327
C     -4.5920838957     -0.7255392789     2.069943284
C     -3.5645266141     -3.0246861843     0.8163303057
C     -0.7384782843     -2.2090062283     3.216690674
C     -2.9213303609     -2.6075803008     1.9950474977
C     -4.4685155559     -2.2953633262     -1.2106272718
C     -4.7072283746     -1.1551356116     -1.9646583356
C     -5.2905001071     0.0056268196     -1.3382769664
C     -4.7080170769     1.1718404304     -1.955196971
C     -4.470085379     2.306066589     -1.1919259853
C     -3.311229065     -3.0860114195     -1.495333898
C     -2.4144981029     -2.7198670196     -2.5262695012
C     -1.1572308602     -3.3195149184     -2.4577780315
C     1.3910518843     -1.1731535034     3.9140450855
C     0.7294802491     -2.208503512     3.2174298264
C     -1.4863064694     -2.9191374362     2.1879377949
C     0.7374736933     -3.5916283266     1.1672267597
C     -0.7434567116     -3.5921318265     1.1664754021
C     -1.4350692129     -3.908578406     -0.0761473088
C     -2.7975650434     -3.5880960188     -0.2443420612
C     -0.7114668789     -3.9862276168     -1.2853581563
C     -1.1595068269     3.3425770034     -2.430685944
C     -3.3133403321     3.0997893648     -1.4701872199
C     -2.4163578152     2.7426482157     -2.5040596906
C     -2.5127184606     -1.4185715143     -3.1688095731
C     -3.697236852     -0.697696582     -2.9191123583
C     -3.6977191852     0.7228619816     -2.9133378168
C     -0.0011239885     -2.7398113887     -3.0847049594
C     -0.0013562843     -1.4071025932     -3.5221440833
C     -1.2910402272     -0.6987807376     -3.5342307367
C     -1.2915224691     0.7305828247     -3.5284202757
C     -2.5136897043     1.4465520443     -3.1571600026
C     -0.0023304393     1.4396652292     -3.510567183
C     -0.0030088691     2.7687750848     -3.0622941549
C     -0.7141975697     4.000053022     -1.2528856613
C     -1.4377444677     3.9120837439     -0.0443490609
C     -2.8000218385     3.5920425098     -0.2151531469
C     -3.5665943136     3.0195058988     0.8408987565
C     -1.4882971237     2.9042367774     2.21161704
C     -2.9231119928     2.5932759007     2.0161930075
C     0.7055074224     4.0005251115     -1.2521611992
C     2.7905593883     3.5939524095     -0.2123227892
C     1.4278923128     3.9130604713     -0.0428919271
C     0.7350224149     3.5865260091     1.196413331
C     -0.745911234     3.5860204436     1.1956595686
C     1.4768430634     2.9052497227     2.2131211213
C     -0.7399804956     2.1862828108     3.234564949
C     -1.4022469116     1.1452997432     3.9220653527
C     2.4097958137     2.7442928899     -2.5016139284
C     1.152454428     3.3433485058     -2.4294944318
C     3.3054806121     3.1020457089     -1.4668372914
C     2.5086682631     1.4482599436     -3.154616734
C     3.6929390744     0.7253799157     -2.9095960906
C     2.5096561968     -1.4168630744     -3.1662640377
C     1.2878567047     -0.6979014009     -3.5329238664
C     1.2873668152     0.7314619378     -3.5271088805
C     3.6934271933     -0.6951783311     -2.9153669242
C     3.5564486529     3.0219333089     0.844504243
C     2.9120666323     2.5952677841     2.0191466665
C     0.7279829515     2.1867816059     3.2353083578
C     1.3902632444     1.146250092     3.9234802181
C     0.6770365517     -0.01543582     4.3467503795
C     -0.6886582976     -0.0159001075     4.3460539835
C     5.1800449102     -1.1573080744     0.834494911
C     4.5832457868     -0.7224111678     2.0745905045
C     3.5170131417     -1.4557644413     2.671261221
C     2.7100458898     -0.7237858865     3.5481597834
C     4.66654219     -2.2873186405     0.2266408385
C     2.7095601458     0.7007760244     3.5539535901
C     3.5160228136     1.4404187668     2.6830384429
C     4.5827538718     0.712679688     2.0804259963
C     4.664970841     2.2926067895     0.2452503354
C     5.537970703     0.0037094505     0.048240494
C     5.1792592922     1.1580539255     0.8439055293
C     4.464058254     -2.2923166001     -1.2060983627
C     4.7027613165     -1.1519322444     -1.9598923671
C     5.2846056854     0.0092313003     -1.3329202668
C     4.7019581644     1.1750467332     -1.9504362619
C     4.4624821059     2.3091100089     -1.1874042569
C     1.1547402734     -3.3187142345     -2.4565850447
C     3.3076061172     -3.0837610732     -1.4919794436
C     2.4116729258     -2.7182246976     -2.523818994
C     2.9138398354     -2.6055949725     1.9980043933
C     1.4788330644     -2.918126847     2.1894407267
C     3.5585145227     -3.0222563613     0.8199409825
C     2.7930153478     -3.5861951326     -0.2415025443
C     1.4305677908     -3.9076037324     -0.0746862822
C     0.7082419412     -3.9857319504     -1.2846357268


