98

 C     -2.4601598356     2.9365041008     -2.4874395573
C     -2.9401039133     3.2857566913     -1.2077284302
C     -4.0569234652     2.5397542278     -0.7419700303
C     -4.3354094413     2.4318651675     0.6521703328
C     -3.4970646023     3.0551322298     1.56584017
C     -1.1100000332     3.1580029504     -2.8516792125
C     -0.1679474317     3.6948023825     -1.9502630667
C     -0.6082746022     4.0329628656     -0.6120452631
C     -2.0021351664     3.8666979843     -0.2573547252
C     -2.3233527528     3.7566806828     1.1193453357
C     1.7386904972     4.038111896     0.0902385293
C     0.3889451308     4.0767167468     0.443931214
C     2.8525127968     1.7755305966     -3.0686741505
C     1.5975133101     2.3861192158     -3.1942630817
C     1.2304025934     3.4331281325     -2.2415397179
C     2.1691266767     3.7894364727     -1.2613669485
C     -4.5087379408     0.4604057813     2.108721769
C     -3.6505507898     1.1241400007     3.0773549174
C     -4.8326117204     1.0850756765     0.914738981
C     -3.1561009141     2.3803065883     2.8087432021
C     -1.7870486225     2.6812820704     3.1233101091
C     -2.7795869864     0.1257419532     3.645001515
C     -1.4357205808     0.3907060782     3.9606270909
C     -0.9238635236     1.7440000352     3.7093009969
C     0.0604305827     3.6788911188     1.7998369679
C     -1.2976386779     3.5821929377     2.114875617
C     2.7459386457     3.532256018     0.9865264342
C     2.4000742729     2.8895361356     2.204679438
C     1.0137917514     2.9626754725     2.6256282864
C     0.497896846     1.9783625407     3.5548852042
C     1.3499839772     0.9355825272     3.9581872748
C     -3.4680705828     -2.8755794225     0.9280559261
C     -4.2162432874     -1.6839925659     0.9046804707
C     -4.1878507043     -0.9282797806     2.1106046904
C     -3.1572125834     -1.146304575     3.1012902963
C     0.8416935659     -0.4160801861     4.1426743833
C     -0.5107029233     -0.7309116883     3.996792881
C     -0.8660107385     -2.0382963078     3.4544863832
C     -2.2260056807     -2.2054347771     2.9928166895
C     -2.5076848304     -3.1609985438     1.9949985046
C     -4.4383273482     -1.0287731112     -0.3766265615
C     -4.8006220634     0.3555223402     -0.3245752027
C     -3.0113550856     -3.4825954732     -0.2530632773
C     -3.1047042938     -2.8236367918     -1.5123632715
C     -3.8163094752     -1.5565555851     -1.5778070144
C     -3.521477022     -0.6323904084     -2.6814529078
C     -2.5555307661     -1.0074492923     -3.6363404999
C     -1.8504599081     -4.2904707596     0.1149968895
C     -0.8722639305     -4.5486222049     -0.7950554275
C     -0.9689021175     -3.9869257211     -2.1217291553
C     -2.059754962     -3.1437583516     -2.4843286646
C     -1.7828306038     -2.2201150975     -3.5028283309
C     0.5073279412     -4.5876088993     -0.3747944239
C     2.1901036971     -3.8521136495     1.1471050705
C     0.8707887382     -4.3084628293     0.9714074003
C     1.8736870226     -1.325666088     3.8007749911
C     1.5722089431     -2.5563542363     3.1544606852
C     0.1691295022     -2.9251521521     2.9600598203
C     -0.1538135472     -3.8998435786     1.9262476801
C     -1.5027852709     -4.008021466     1.4934046155
C     2.5659916496     -3.0711555757     2.2835400243
C     -3.7587214799     0.8037191937     -2.5212385423
C     -4.387133143     1.264977945     -1.3424735228
C     -1.711669375     -0.0367222573     -4.2755864476
C     -1.8758079479     1.3170311042     -4.0354446349
C     -2.9245956663     1.7455609171     -3.1733022989
C     -0.3898932155     -0.57946694     -4.3707099721
C     -0.7309591497     2.1462917161     -3.8348663992
C     0.5675554875     1.6286600657     -3.8759242711
C     0.7514233575     0.193665072     -4.1410426338
C     0.3609541633     -3.6914675074     -2.5179546462
C     0.6688492493     -2.5890506042     -3.3493574341
C     -0.4453242007     -1.9576125129     -3.9402380072
C     1.9089328956     -1.8489978826     -3.1571308628
C     1.9474904494     -0.4841535077     -3.6437973928
C     3.0052480295     0.3332469318     -3.2373072368
C     1.2756389739     -4.0862791304     -1.4644254386
C     2.4912808063     -3.4005702543     -1.2751380633
C     2.8523844438     -2.2776908945     -2.1421099538
C     4.4483674205     -1.4798635931     -0.3224317497
C     3.8909180322     -1.3746219215     -1.6847565899
C     3.9984823905     -0.1183517496     -2.3254626203
C     4.9490630353     -0.3077691608     0.3232728272
C     3.9671840168     -2.5067038459     0.5174386168
C     3.0154288781     -3.4586561411     0.0410521103
C     3.036176061     -0.5524201478     3.4579095803
C     4.6205880966     -0.040808813     1.6958759679
C     3.9553057592     -1.0138877587     2.4901134932
C     3.7106044288     -2.285035078     1.9102427866
C     3.8581637446     3.0893778596     0.1868968606
C     4.6139215173     1.9988933331     0.6034867476
C     4.3510906013     1.3748365851     1.8561784764
C     3.2648277643     1.8092099531     2.6718933063
C     2.6993011055     0.8465554972     3.5471412229
C     4.5551107721     1.0479579737     -1.6618948149
C     3.8192181198     2.2070977084     -2.108590157
C     3.4791136641     3.2107580372     -1.2018568677
C     4.976561499     0.9566893089     -0.3519933052


