98

 C     -2.8814498898     3.2827135064     -0.8109703854
C     -3.8284259135     2.3448659107     -1.3388537595
C     -0.493637653     4.4176010969     0.2450579953
C     -1.4120365164     3.8674708488     1.1407874426
C     -2.6722476892     3.3148461204     0.6155215589
C     -3.4476732345     2.4148997814     1.4573912682
C     -2.9647889455     2.1587656304     2.760330101
C     0.5808988865     3.3928387374     2.6636570849
C     -0.8763590194     3.4641995981     2.438232338
C     -1.7092366292     2.6850829096     3.2455257374
C     1.073686008     2.5155831888     3.6394820737
C     0.1880469415     1.6301751638     4.3432318244
C     -1.1631477061     1.7212130536     4.1616467311
C     1.5071120837     3.7771432452     1.6170635058
C     2.8046290992     3.1009851328     1.4716793761
C     0.9443695216     4.4063722012     0.4953881205
C     3.4402519562     3.1300732121     0.2166434881
C     -4.3433633805     1.4137892507     0.8733363425
C     -4.5068192642     1.4168387657     -0.5352767715
C     -3.138977808     0.8727982527     3.3679842995
C     -3.8576896199     -0.1187944784     2.7396955576
C     -4.5476111391     0.1691130053     1.5343977275
C     -1.9513951602     0.521430547     4.0931518892
C     -4.6393011275     -1.077985598     0.7979251489
C     -4.6898050725     -1.0874133284     -0.6187863001
C     -4.6737487905     0.1624398216     -1.2881980445
C     -4.1009517013     -2.1888106388     -1.285200396
C     -3.8935670996     -2.0637071582     1.5072503145
C     -3.2129216975     -3.1097697862     0.8477570828
C     -3.4575101589     -3.2375387841     -0.5467143059
C     -1.3769547128     -4.4277741584     -0.8534911854
C     -2.4588524368     -3.8006658653     -1.4029650316
C     0.8015120468     0.3353594143     4.4535616847
C     0.0896595767     -0.8519712519     4.1407804345
C     -1.3479797113     -0.7541067604     3.9550159856
C     -2.0483760117     -1.7768264201     3.1703031561
C     -3.3377988223     -1.4648121169     2.6927782992
C     0.1312308727     -2.9600936633     2.7136439543
C     -1.303067583     -2.8631125561     2.5247022014
C     -1.9427223496     -3.5692601343     1.4196046629
C     -1.13113102     -4.3563533513     0.5782014132
C     -3.3730615888     -2.0066428074     -2.5160378045
C     -3.2305650091     -0.7454104944     -3.1029124284
C     -4.0284727833     0.3096100806     -2.5348285711
C     -3.5859278919     1.6789080494     -2.6105592704
C     -2.4913769303     1.9805998656     -3.35770877
C     -2.3065999724     -2.9743457065     -2.5710130949
C     -1.0300361101     -2.6771869002     -3.0926883419
C     -0.8227756419     -1.3481549726     -3.6836037172
C     -1.9502830037     -0.4346763455     -3.7446131295
C     -1.6786593788     0.9355170897     -3.964204459
C     1.6594556602     -1.6800143973     -3.4347287962
C     0.5273501357     -0.837011633     -3.8126391696
C     0.7536767698     0.6001448577     -3.9489632305
C     -0.3679464117     1.4372986032     -4.0302812597
C     2.9122424324     -1.0541563775     -3.2516767731
C     1.4495671885     -2.9812320251     -2.8079531198
C     0.0971287604     -3.4641088614     -2.6066334217
C     2.476500648     -3.5011922305     -1.9738735733
C     -0.1277824282     -4.380246877     -1.5369732433
C     -0.6923381549     4.3434487468     -1.1744435081
C     -1.8395277968     3.7391702257     -1.7163505147
C     -1.6463633692     3.0807686446     -2.9750421592
C     -0.3552339796     2.7976796896     -3.4710109433
C     0.804908704     3.3429995405     -2.8911491854
C     0.5933226311     4.226768902     -1.8003724072
C     2.8059703928     3.726593984     -0.9165614476
C     1.5890093271     4.3618465892     -0.77290055
C     3.0799596355     0.3782331855     -3.2892371101
C     2.0160522173     1.2329221971     -3.5696758457
C     2.0467327981     2.5906635386     -2.9983277731
C     3.072901824     2.9131074368     -2.0869956298
C     4.495561232     -0.4396531637     -1.6190220074
C     4.1018604727     0.7278212051     -2.3311532362
C     4.0473375383     1.945684457     -1.6878670013
C     4.6341419482     -0.4283257198     -0.2098341923
C     4.4507243873     0.8494005495     0.4960176533
C     4.2367296389     2.0103663869     -0.2646284303
C     3.9149705175     -2.8248993075     -0.2316057716
C     3.6398873327     -2.733423886     -1.6514103431
C     3.8776833123     -1.5559243996     -2.3064290069
C     3.9534683071     -1.6161694084     1.8353453917
C     4.3591739337     -1.6818857524     0.4881970113
C     0.8763261721     -4.6219714707     -0.5391450181
C     2.9624843439     -2.5048511291     2.3653988802
C     2.3562758324     -3.5000255361     1.5863533545
C     2.9597008787     -3.7332152867     0.3182512286
C     2.1580564819     -4.2272712986     -0.772996896
C     2.1673263456     0.5189894781     4.0583484637
C     2.8740875718     -0.5496963164     3.571623034
C     2.2192454814     -1.8175460726     3.38527501
C     0.8234482927     -1.9661296506     3.5406743039
C     0.9324906059     -3.7748301122     1.8054296338
C     0.2676279859     -4.4650044851     0.7723273757
C     3.974965401     0.8779230901     1.8778146894
C     3.1688505799     2.0120029368     2.3621915308
C     2.3375134413     1.8190340311     3.4793257544
C     3.8424241606     -0.3592030819     2.5373952151


