98

 C     4.5271268043     0.463957275     1.7959329383
C     3.9836282142     1.7624139207     1.6771502141
C     1.9671719684     3.2206208734     2.2277532737
C     2.2305579904     3.9379563995     1.0387998382
C     1.1841278384     4.5749849762     0.3055089079
C     -0.0773004852     4.663583355     0.847248761
C     3.9608134816     -0.5046529069     2.6915222226
C     2.9224636668     -0.1469689099     3.5235962013
C     2.4177096756     1.1901144458     3.4964312952
C     2.8876679983     2.1471407346     2.5784582932
C     0.5877448824     3.217787185     2.7380262874
C     -0.3661898367     4.0196048775     2.0979230779
C     2.6261356078     -3.620168048     1.2464323595
C     2.8686214675     -2.7005747079     2.2836617412
C     3.9475467494     -1.8044836214     2.0700754586
C     -2.2075105799     3.5390045122     -1.9175281671
C     -1.0939560811     4.198917953     -1.3474887755
C     -1.2304463662     4.6011825297     0.0088586729
C     -2.3144188983     4.1007220115     0.8149283054
C     -4.0837516925     2.4676614012     1.0477421722
C     -3.417756669     3.4296778403     0.2428651621
C     -3.3789869225     3.2130798004     -1.1704987952
C     1.018446215     1.1142466362     3.8641684543
C     0.0751769548     2.0628309268     3.4745301101
C     -1.3186209101     1.6499643849     3.4089353967
C     -2.2668769926     2.5431519128     2.7464014607
C     -1.7641097349     3.6843308731     2.088894022
C     -3.508515304     2.0379634858     2.2831888164
C     0.2350488648     3.9169558779     -1.8938107885
C     1.3439185211     4.2587826008     -1.0931142559
C     -2.0197923943     2.5062217619     -2.8920819563
C     -0.7395924515     2.1046055735     -3.3296776722
C     0.4161549018     2.8654430771     -2.9011478344
C     1.7443138718     2.3124452805     -3.1153095678
C     1.8381453615     1.0603243008     -3.7523819951
C     -3.1151783628     1.5915989172     -2.8091717088
C     -3.8520586374     -0.679020393     -2.4845999574
C     -2.9552279563     0.2131129792     -3.1103489629
C     -1.6570906261     -0.2619415439     -3.5770891223
C     -0.6139351313     0.7221508174     -3.7841350374
C     0.6830961016     0.2596202907     -4.0169219206
C     -4.76739655     1.3403880492     0.4623419391
C     -4.6783458734     1.1002647877     -0.9447387334
C     -3.9764027795     2.0342635369     -1.7480470306
C     -4.6828867327     -0.2608304301     -1.3855623452
C     2.8720698181     2.7023671901     -2.2656487567
C     2.6244465684     3.6215547056     -1.2292736424
C     2.9344656925     0.1488584762     -3.5053795264
C     3.969314587     0.5082616047     -2.6696924294
C     3.9517273911     1.8080655136     -2.0483011748
C     2.4318377968     -1.1890588359     -3.47996913
C     4.5341080403     -0.4594114377     -1.7721321471
C     3.9923528782     -1.7587663168     -1.6552411227
C     2.9001790021     -2.1453065775     -2.5603617414
C     -0.3522215205     -4.0231652023     -2.0911659692
C     0.6026057863     -3.2197644351     -2.7279422556
C     1.980247381     -3.2203121438     -2.2128638814
C     2.2406776678     -3.9372133806     -1.0229983673
C     -3.4971609322     -2.0467386653     -2.2873908637
C     -2.2530816071     -2.5498652203     -2.7462706951
C     -1.3040054981     -1.6551047904     -3.405497547
C     0.0906934731     -2.0656576846     -3.4662314077
C     1.0337406332     -1.1155094938     -3.852580959
C     -1.750718558     -3.6902101179     -2.0870094771
C     4.9718837889     0.2864521518     -0.6124011852
C     4.5513332611     1.6652570988     -0.7545817186
C     4.0781157994     2.3988604367     0.3665768703
C     3.1906315554     3.4528883218     0.0728248533
C     4.9701755228     -0.2811754375     0.6377363188
C     4.5514200083     -1.6606775475     0.7784547188
C     3.1965749937     -3.4505583135     -0.0536856744
C     4.0833281239     -2.3950603345     -0.344344703
C     -1.2227878213     -4.606182989     -0.0051265878
C     -0.0666262372     -4.6666693535     -0.8394919359
C     1.1927574278     -4.5759792929     -0.2933578633
C     -2.2083205423     -3.545631286     1.9178389354
C     -1.0916937694     -4.2036964335     1.3516862444
C     -4.0759882773     -2.477393218     -1.0539564406
C     -3.377725347     -3.2216468848     1.1667304498
C     -3.4112087019     -3.4383052411     -0.2467592804
C     -2.3047733334     -4.1075172259     -0.8149711333
C     -4.6881254076     0.2500948807     1.3772359471
C     -3.9791038933     -2.043826142     1.7421889635
C     -4.6797902644     -1.1109904083     0.9364345222
C     -4.763538173     -1.3512561735     -0.4709459081
C     0.669510918     -0.261465171     4.027289169
C     -0.6259330204     -0.7261457607     3.7899825771
C     -1.6699909793     0.256217099     3.5792982227
C     -3.122318789     -1.599737365     2.806308561
C     -2.9657053137     -0.2209892357     3.1080364909
C     -3.8618283247     0.6696573377     2.4791628467
C     1.3471484777     -4.259518951     1.1058123388
C     0.2349305939     -3.9195325752     1.9026378231
C     0.410780784     -2.8677244615     2.9105977291
C     1.7372655973     -2.3125253869     3.1293857972
C     1.8268008319     -1.0602521223     3.7667800872
C     -2.0257133626     -2.5125434237     2.8930392555
C     -0.7477138957     -2.1088053807     3.3350940474


