98

 C     3.9465194073     1.794060379     -1.8823657209
C     4.357153252     0.4578780226     -1.6973604
C     5.0016249671     0.1578732374     -0.4597638649
C     5.0243392202     -1.1644029346     0.042221267
C     4.4968674469     -2.2003825513     -0.7220066835
C     3.8180251775     -1.9071778877     -1.9539286717
C     3.6388670954     -0.5863242157     -2.430942613
C     2.9109836429     2.1167241975     -2.7811368972
C     2.0977141733     1.1190999913     -3.4134406495
C     3.9665201033     -2.0713589048     2.0629002479
C     3.4687396981     -3.1897065897     1.2768455794
C     4.7612292386     -1.1101610743     1.4745987916
C     3.7647517753     -3.2672897724     -0.0751955638
C     2.7309325622     -3.7121767206     -0.9659081504
C     1.4820142375     -4.1741763192     -0.4772355465
C     0.4513489873     -4.194294586     -1.4171145216
C     0.3006683077     2.8107053052     -3.4862741303
C     0.7503808824     1.4971599204     -3.8125800355
C     2.4393607375     -0.2639298185     -3.2178103762
C     0.0657627234     -0.9297823764     -3.8415773599
C     1.4152029739     -1.2892630549     -3.4566345223
C     1.6432207515     -2.6125509474     -2.9080153045
C     2.7909227327     -2.8890830451     -2.1395398758
C     0.5475354115     -3.4654665416     -2.6554089317
C     -0.9676363678     -0.6186807041     4.0748048173
C     0.3474113047     -1.0024648903     3.8110757453
C     2.934927016     -1.6871723666     2.9995392931
C     2.7113875901     -0.3414833659     3.3507499605
C     1.1184181439     -3.9927645925     0.9243738649
C     2.1452247462     -3.5148034613     1.761591561
C     1.8452129381     -2.6131799579     2.8243543005
C     -0.9198726608     -4.2547082994     -1.0237253702
C     -1.319006431     -3.9852746135     0.3149022991
C     -0.2717259468     -3.7641168432     1.3035524523
C     -0.5643347988     -2.9468932342     2.4613324466
C     0.5275726266     -2.2800968     3.1512761655
C     -1.9190359382     -2.4777381775     2.7067767478
C     -2.0865810956     -1.4058235712     3.615848453
C     1.3728151279     0.0188175797     3.784334219
C     3.6154706504     0.6700387815     2.8004025777
C     4.6063788958     0.272754134     1.8499233432
C     0.9478988675     1.3991472695     3.7221050948
C     1.82710694     2.3495421428     3.1544359907
C     3.14231605     1.9975287382     2.7085874013
C     -2.7577701311     0.8224955971     3.8307506681
C     -1.3592323112     0.753562526     4.1402180075
C     -0.4490770717     1.7614984186     3.761150656
C     -3.2368962002     1.8818071857     3.0825946573
C     -2.3144827195     2.8804035585     2.6025409652
C     -0.9447098664     2.8660864284     2.9455799001
C     -4.2063912241     -0.7412200233     2.6158427329
C     -3.2215903563     -0.5256863497     3.5562878053
C     -4.1210616917     -1.8830293366     1.7506097603
C     -3.480697934     -3.2223856452     -0.613421238
C     -2.6667452907     -3.4628037802     0.5249507988
C     -2.9842480437     -2.7402776517     1.7473459734
C     3.4757067872     2.8427426281     1.6025152586
C     4.2651465047     2.3414932305     0.5338189614
C     4.8434030279     1.0591572385     0.6817803353
C     3.9258871265     2.7547873196     -0.7797478824
C     2.3446292865     3.6947469864     1.3480709183
C     1.983197761     4.078415487     0.0444983272
C     2.8702683039     3.6731415152     -1.0095175565
C     1.0471699348     3.6605174253     -2.6013428076
C     2.336045238     3.3568831447     -2.3038602059
C     -0.040754546     3.5765101758     2.0745209623
C     1.3398381069     3.4092870344     2.3299028679
C     -2.7376539156     3.2826001054     1.3030579904
C     -1.8293391571     3.7763158101     0.3494827241
C     -0.4609412672     4.0350902504     0.7643132576
C     0.5568205592     4.2811242691     -0.2460372245
C     0.1520239109     4.2138882153     -1.5922432724
C     -3.2636968148     2.6506847104     -1.4220214781
C     -2.1815805812     3.5770336797     -1.0455443675
C     -1.1710054125     3.8462156372     -1.9807565633
C     -3.1763855883     2.0000493919     -2.6699886491
C     -5.0122245857     -0.0746564369     0.5248126832
C     -4.7400441593     0.3796978612     1.8503318156
C     -4.2298829248     1.6555348731     2.0560573132
C     -4.6852969251     0.7082186328     -0.6108067857
C     -4.0910698568     2.0323320069     -0.3957662695
C     -3.8888024639     2.4729391305     0.9289964199
C     -4.3116893694     -1.4224208959     -1.8689278022
C     -4.4527934657     -2.1668458813     -0.6358655091
C     -4.7728713437     -1.5091374751     0.5186309195
C     -3.6398881734     0.6524168079     -2.8459939572
C     -4.3953098207     -0.0071441726     -1.8539649426
C     -1.6748708812     -3.7657436701     -2.1376552536
C     -2.6799764556     -0.0436327153     -3.6608556116
C     -2.426631145     -1.4126969026     -3.5063117004
C     -3.3592798758     -2.1162196955     -2.6873148987
C     -2.9285842147     -3.2620377413     -1.9407070367
C     -1.0662933384     3.0770758227     -3.2061827009
C     -2.0217356621     2.1479160752     -3.507216838
C     -1.6228881489     0.8623252955     -4.0009914168
C     -0.2577496242     0.4738568754     -4.0422098398
C     -1.0439706808     -1.8784396809     -3.6463163881
C     -0.7609764732     -3.1301047779     -3.0678619132


