98

 C     -4.7934491863     -1.4843141632     0.7070567843
C     -4.8522946704     -0.1863984339     1.2615954651
C     -4.9584960331     0.9089113367     0.3560865514
C     -4.1617533514     0.031155477     2.486336542
C     -3.2859347527     -0.9634072382     3.0041969422
C     -3.1512333649     -2.2416256806     2.4190223446
C     -4.0394492328     -2.5336637666     1.3419730311
C     -3.5907142912     1.325771222     2.7833529261
C     -3.7485622633     2.4425618709     1.9040338119
C     -4.4565622597     2.2207634823     0.6893622125
C     -2.7103502121     3.426079221     1.9153203294
C     -2.3714285242     1.1176805565     3.4894095439
C     0.0630288535     1.4920665431     3.4768625447
C     -1.2844832455     2.0108857059     3.3592905123
C     -1.505873486     3.2134814407     2.6597844818
C     2.4361185014     1.7978713381     3.0413047169
C     1.1544337404     2.326876983     2.9990866909
C     -0.8660476598     -0.8450649611     3.5590934
C     -2.1503002216     -0.2967326037     3.5909127606
C     3.057690313     -2.2050772674     2.5798058798
C     1.792212402     -1.8388063617     3.0848673895
C     1.599252106     -0.4660254305     3.5311114821
C     0.2719693569     0.0814198605     3.6380602316
C     2.6759932979     0.4356341102     3.4091464931
C     -0.3036186677     -4.248267867     1.1244960731
C     -1.6155494575     -3.9531704354     1.5708708369
C     -1.846655195     -2.8941309775     2.4840300539
C     0.826074848     -3.6596645833     1.70136772
C     0.6394170514     -2.6427672082     2.7114432317
C     -0.6905757685     -2.1982347383     3.0380980804
C     -2.3532460768     4.1451156562     0.7279087199
C     -2.9613262813     3.8127959381     -0.5085675272
C     -4.0100146584     2.8515295221     -0.521125197
C     -2.1389240734     3.8826656055     -1.6675703212
C     0.9182417042     3.4251607058     2.0814193973
C     -0.4232558033     3.8669199763     1.9586134416
C     -0.936226833     4.4521431122     0.7872800825
C     1.8463613763     3.7028932032     1.0195939216
C     -0.1134318255     4.5512517028     -0.3698482182
C     -0.7682830641     4.3730175927     -1.6163048632
C     -2.2134260048     2.8763743737     -2.6688964449
C     -3.0996848725     1.7777598571     -2.5613751199
C     -4.1054153259     1.8799164484     -1.5719779926
C     -2.6548069621     0.47256118     -3.0334634381
C     -3.4301972181     -0.6881582688     -2.6303450252
C     -2.8719543587     -1.9565968008     -2.858517248
C     1.285405445     3.5621523036     -2.6176683761
C     -0.0745039197     3.7534913981     -2.687630212
C     -0.9052964308     2.7235465191     -3.2496115252
C     1.8669356343     2.3739396162     -3.1640862151
C     1.0709267113     1.2737691192     -3.5469563445
C     -0.3866634137     1.4600235123     -3.5682092392
C     -1.2855544162     0.3114487648     -3.4851649311
C     -0.6784873807     -0.9964015638     -3.5164950294
C     -1.5085993541     -2.1046909026     -3.268162121
C     3.2040623038     3.1009265065     -1.4110157517
C     2.001129735     3.8960569945     -1.4216943672
C     3.4678080714     2.2226190978     2.13259763
C     3.1505612182     3.0435041961     1.0350911728
C     1.3086638784     4.2311823428     -0.2373984258
C     3.8518124709     2.7557065717     -0.2155893279
C     4.7557486598     1.6585657546     -0.3006354958
C     -4.4541328498     -0.5771047166     -1.5814003354
C     -4.7213662421     0.7015238829     -1.031989997
C     -3.2159122607     -3.1057380186     -2.0424694589
C     -4.0584406371     -2.9468313054     -0.9564866683
C     -4.6932482948     -1.6813391413     -0.7254688725
C     -2.0422827723     -3.9372779363     -1.9259206435
C     -3.6816623282     -3.4961878637     0.3341791338
C     -2.5205888164     -4.222726398     0.4690704171
C     -1.717042755     -4.5236331321     -0.7003284566
C     -1.0003902551     -3.3382184516     -2.7069524393
C     0.7727802274     -1.1879916455     -3.4116749598
C     3.0408672371     -0.2018433562     -2.9990832352
C     1.6586634559     -0.0579581005     -3.4411435569
C     3.4919122558     -1.4727980748     -2.5803652513
C     2.5880831808     -2.5519426769     -2.4692019227
C     1.2542712955     -2.4488298561     -2.8868813789
C     0.3458194078     -3.4505300796     -2.3634441857
C     0.6878771287     -4.1462525155     -1.129433478
C     -0.3519243692     -4.5751037636     -0.2964771009
C     5.1166040908     -0.5401696863     -0.9729319748
C     4.7354523243     0.7771505344     -1.4270125098
C     3.7698403401     0.9436631805     -2.4640459575
C     3.1392103508     2.1889877568     -2.5059213174
C     4.519216404     -1.6386851576     -1.5565732904
C     4.4381605646     1.1476051471     2.0536179897
C     5.3365814212     -0.4918846893     0.4609276865
C     5.1022990581     0.8771494585     0.8673380658
C     4.1446731907     -2.7726835832     -0.7417975614
C     4.2868976333     -2.7068357653     0.6488681415
C     4.8929273177     -1.5484686172     1.2597291572
C     4.1477836057     -1.261962303     2.4692760017
C     3.9457880024     0.0506773883     2.859668869
C     2.9662347455     -3.3474510779     -1.3025570628
C     1.9695430231     -3.918263372     -0.5063653143
C     2.0549558257     -3.7444929282     0.9379940693
C     3.1886519315     -3.1330906028     1.4745827257


