98

 C     -4.484737478     0.0135742018     -2.1217711181
C     -4.9920867131     0.0102071964     -0.848286802
C     -4.8828176635     -1.1795320875     -0.0095836711
C     -4.8704196492     -0.7259715231     1.34346852
C     -4.1274582496     -1.4174706388     2.2933736293
C     -3.8190794754     1.1880808643     -2.6217517457
C     -3.6578932423     2.3378079209     -1.7976612488
C     -2.5813244314     3.1622978589     -2.1341451848
C     -4.8700530673     0.7342840732     1.3474758087
C     -3.3616476189     -0.6898352421     3.2887764242
C     -3.3613029384     0.6867156447     3.2925517302
C     -4.1267477128     1.4201857903     2.3011589542
C     -4.1224944769     2.3203942164     -0.4133346253
C     -4.8822245794     1.1952705694     -0.0030690822
C     -3.3665001558     2.5665386132     1.9206122945
C     -3.3430101058     3.0436664538     0.5965738571
C     -0.9989373442     -3.2366009178     2.341786733
C     -2.1652242246     -2.5867502492     2.7335203052
C     -2.1313812721     -1.3980205156     3.5200432892
C     -2.1306812541     1.3930050858     3.5276960949
C     -0.9087477702     0.7268059946     3.7781779992
C     -0.9091147164     -0.7338178875     3.7741734533
C     1.5571535632     -0.7305773266     3.6319242687
C     0.310494305     -1.4617924914     3.5357903519
C     0.26405919     -2.7501835245     2.8697011295
C     2.7432800934     -1.3973341892     3.2237578497
C     2.6985171529     -2.6365270975     2.5366291665
C     1.4828049773     -3.316109314     2.333475663
C     1.4110016915     -4.187190079     1.2101712261
C     1.5575194776     0.7231143812     3.6359106896
C     0.3112258013     1.4554670072     3.5437866327
C     2.7439826268     1.3915100922     3.231414532
C     -0.9973146069     3.2374580324     2.3595427747
C     -2.1639280795     2.5860498056     2.7477064626
C     1.4131001958     4.1930348737     1.2331554644
C     1.4844669197     3.3157680157     2.3516660665
C     0.2654347331     2.7475174946     2.884774482
C     2.6998369384     2.6344751466     2.5510905265
C     -1.0647201847     4.0392859889     1.1407019415
C     -1.9428630051     4.0215061348     -1.1598227442
C     -2.1962995804     3.8594472995     0.2167533714
C     0.1444533927     4.5345745786     0.6370347736
C     0.142186727     -4.5248153161     0.6121871226
C     -1.0667369233     -4.0316902363     1.1185642843
C     -2.1982269739     -3.8462209821     0.195614315
C     0.3670246972     -4.6458581102     -0.7984139738
C     -0.6373778792     -4.2938702159     -1.6723631601
C     -1.9448718044     -4.0008552517     -1.1818291629
C     1.7108560297     -4.2735434829     -1.0856654557
C     1.9873528487     -3.3831874941     -2.1648661338
C     3.1741730681     -2.6371723479     -2.0748825643
C     3.7620185243     -2.6514294456     1.5343636262
C     3.5458642786     -3.3081171299     0.2973502415
C     2.3976362499     -4.1298494095     0.1777571719
C     4.0175762511     -2.6518125433     -0.8715605993
C     -3.3445291375     -3.031960098     0.5799051037
C     -3.3677839619     -2.5620957516     1.9065441251
C     -2.5829025023     -3.1359938453     -2.1514236442
C     -3.6590579706     -2.3128211602     -1.8104211213
C     -4.1236478305     -2.3027693246     -0.426014837
C     -3.8196651155     -1.1585069637     -2.628187896
C     -1.5742332579     -2.7237530626     -3.0900085189
C     -1.5447207418     -1.4133911557     -3.6062341039
C     -2.7576626484     -0.7009021734     -3.4597480713
C     -1.5440056586     1.4471808167     -3.5983881236
C     -2.7573016907     0.7345090441     -3.4558100145
C     -1.5728608201     2.7547027082     -3.0749784605
C     0.8908755786     -2.8260556231     -2.9627928587
C     -0.3644511222     -3.4199690634     -2.7880013366
C     0.9523728563     1.4706073555     -3.4550457924
C     3.30053883     -1.3837052359     -2.7093532068
C     2.1837368446     -0.7066061195     -3.3130810849
C     0.9516446136     -1.4388562408     -3.4630202116
C     -0.2658420876     -0.7128734776     -3.7358495211
C     -0.2654726411     0.7467423675     -3.7318497654
C     4.3182640334     -0.6690737527     -1.9896862506
C     4.3185991105     0.6910659021     -1.9859511615
C     3.3012400982     1.4101441797     -2.7016893434
C     2.1841011305     0.7369273662     -3.3091209062
C     0.8922977881     2.8550723356     -2.9472126207
C     -0.3627289372     3.4486456538     -2.7691606114
C     4.465998996     -1.4204186324     1.6076418277
C     4.9069459045     -0.7349601284     0.4394774616
C     4.7016215049     -1.417683403     -0.7974583895
C     4.4667140129     1.4226011165     1.6154477922
C     3.8862500484     0.6795201759     2.7236859661
C     3.8859020417     -0.6831394486     2.7199400831
C     4.7023296194     1.4329325271     -0.7896364401
C     4.907318849     0.743335457     0.4435311946
C     2.3997053397     4.1408680123     0.2004436333
C     4.0189066976     2.6677977115     -0.8569680115
C     3.5475264981     3.3179154864     0.3155262977
C     3.7633530262     2.6543435407     1.5489205156
C     -0.635224003     4.3165484818     -1.648742967
C     3.1755006379     2.6601789044     -2.0603504533
C     1.9890560625     3.4072704028     -2.1462405259
C     1.7129990823     4.291828262     -1.0621713895
C     0.3693543655     4.6632385668     -0.7728823166


