98

 C     3.6067640387     -1.556730836     2.5019853314
C     2.8866069918     -2.7324836547     2.2583730438
C     3.2272791397     -3.4456583646     1.0641002582
C     2.2546486404     -4.2804228978     0.421780701
C     1.0797944407     -4.5402173247     1.0626336862
C     0.7307104209     -3.857562224     2.300129532
C     1.5351399796     -2.8336770659     2.8134166218
C     3.02348565     -0.4781687538     3.2522220645
C     1.6440214999     -0.4574792673     3.6007879186
C     -1.4205215302     -4.1066502851     -1.6007376017
C     -0.1558654808     -4.4654358215     -1.0824177786
C     -0.1185561709     -4.7721577782     0.3087898442
C     -1.2169567284     -4.4468879943     1.157690734
C     -3.2754729067     -3.2172108464     1.4386319579
C     -2.4762731943     -4.080776393     0.6357281347
C     -2.5823653465     -3.9858895686     -0.7785744911
C     1.7401025779     2.00569861     3.4481629849
C     0.9786439182     0.8347144775     3.6950285119
C     0.86816684     -1.6623416293     3.4053682352
C     -1.2370973968     -0.2748490832     3.5326996976
C     -0.5694435163     -1.578553325     3.4280397199
C     -1.3499507644     -2.7172833702     2.9469705225
C     -0.6828193584     -3.8056915709     2.3575525752
C     -2.7120988563     -2.5548583752     2.5655991286
C     1.0386300033     -3.9344142564     -1.7337801968
C     2.2610269706     -4.005400228     -1.0033358885
C     -1.5279933445     -3.1264122976     -2.6378245616
C     -0.4086861663     -2.4719466294     -3.1646102747
C     0.9234866381     -2.9300366349     -2.7732639973
C     2.0781994335     -2.0950351466     -3.0754935261
C     1.8486530658     -0.8884145275     -3.7632162997
C     -2.8021114035     -2.4608202029     -2.5025644747
C     -4.0321479844     -0.408102292     -2.2738820614
C     -2.9886130148     -1.1061003936     -2.9042198975
C     -1.8617380124     -0.3841922471     -3.4828745684
C     -0.6247622028     -1.1190242503     -3.6952383989
C     0.5151907789     -0.39259594     -4.0181660695
C     -4.2587904263     -2.3367061869     0.8520995598
C     -4.3253689316     -2.1962070725     -0.5630712685
C     -3.4660424221     -3.0027712821     -1.3703045701
C     -4.6787024896     -0.9192459468     -1.0929607837
C     3.308565572     -2.1791643958     -2.283507956
C     3.3479664324     -3.1285986634     -1.2333940175
C     2.6955135093     0.2508977824     -3.5918803225
C     3.8121552685     0.1913466002     -2.7690463283
C     4.1393337539     -1.0361973156     -2.1331021565
C     1.8968100096     1.4344253332     -3.615718482
C     4.1002902727     1.278671257     -1.8800051357
C     3.2786863701     2.4109428817     -1.8135775471
C     2.1448295865     2.5128941212     -2.7558212992
C     -1.4181481875     3.6919535476     -2.3418962739
C     -0.3251678093     3.0610268989     -2.9524781731
C     1.0265920917     3.3988750457     -2.4896429936
C     1.1633364128     4.2730991446     -1.3946965675
C     -3.9999887605     1.0225769817     -2.1868629117
C     -2.9394378483     1.7580985133     -2.7682705386
C     -1.8406461279     1.0569064977     -3.422748523
C     -0.5792722914     1.7684719722     -3.5830239401
C     0.541680775     1.0324323331     -3.9500424305
C     -2.6981008253     3.0387557799     -2.2202587042
C     4.7649879917     -0.7085018941     -0.8596328624
C     4.6415679374     -1.5861659099     0.2513843652
C     3.9948390189     -2.8269367997     0.0359331017
C     4.5283427921     -1.0057018786     1.5403174259
C     4.7163095736     0.7030194108     -0.691503093
C     4.5469504594     1.2970218643     0.5881225132
C     4.5337682256     0.417612174     1.7054700312
C     3.0721858731     1.9236864647     2.9370712322
C     3.7018435333     0.7079131361     2.8461075971
C     2.2288246802     4.1068146774     -0.4194452985
C     3.2438628572     3.1503043207     -0.5524352481
C     3.8347253038     2.5745734495     0.6632086863
C     3.2532581149     2.9212139986     1.9045809943
C     0.2698842222     4.7278961685     0.7200367122
C     1.6651454917     4.4368863084     0.8662852916
C     2.1155459924     3.7779871325     1.984645784
C     -0.6943256727     4.1936772222     1.6016197653
C     -0.2208952116     3.3158409851     2.6861836109
C     1.1503449463     3.1984900382     2.8955444881
C     -2.3296597327     4.2522595575     -0.2739108024
C     -1.2495007964     4.5129214876     -1.1835396825
C     0.0138412372     4.7718391489     -0.7003856584
C     -2.9103822112     3.1400532387     1.7894383611
C     -2.0536372005     4.0373722047     1.1014599259
C     -4.6049466236     1.4076278258     -0.9523596762
C     -3.9911126731     2.4791818537     1.1546681716
C     -4.1578731654     2.5653587344     -0.2672096194
C     -3.2921547211     3.4362832559     -0.9684216092
C     -4.3736028388     -1.1843821223     1.6894266652
C     -4.2162710079     1.225724444     1.8372334177
C     -4.7290069279     0.090120701     1.1644660694
C     -4.9508677544     0.1954722613     -0.2455050962
C     -1.0500871475     2.2159971386     3.1706622879
C     -0.4578717124     0.9307721951     3.5893625478
C     -2.3996525573     2.2523192201     2.8223440389
C     -3.2071598664     1.0873892567     2.8496120211
C     -2.6566413599     -0.1750093686     3.1930728195
C     -3.3644706545     -1.2982073409     2.7107609665


