98

 C     2.8057118229     0.718137938     -3.3785950116
C     3.3635943143     1.7493723974     -2.592880267
C     4.4798539179     1.3819095973     -1.7940366732
C     4.7826848223     2.0919543968     -0.5675242642
C     3.9372129707     3.1146109502     -0.1604936224
C     1.4467150517     0.7816217744     -3.8450238802
C     0.5897605812     1.8508327648     -3.52649202
C     1.0911849693     2.8678740785     -2.6111031325
C     2.4784276056     2.8335902873     -2.1735813489
C     2.8040951578     3.4985402897     -0.971294227
C     -1.2361443453     3.4573362181     -2.1488738233
C     0.1223947001     3.5776608515     -1.8128875154
C     -2.7051668985     0.0178655647     -3.6447972217
C     -1.3330335003     0.2759358298     -3.9336210601
C     -0.8259035879     1.6137966162     -3.7064193354
C     -1.7073276363     2.5710616089     -3.1359901561
C     4.8883883642     1.2203501883     1.7292360428
C     3.9533200934     2.2405690585     2.1341506524
C     5.308414674     1.1533539761     0.3936143511
C     3.5312150814     3.1992865686     1.2261237381
C     2.1735152072     3.6644826292     1.2677712632
C     -1.1460025943     2.7308536187     2.7418279691
C     -2.509566985     2.8718218388     2.432706774
C     -0.1686812079     3.3749662949     1.8828628372
C     1.2269103203     3.1642477717     2.1789660507
C     1.6396913644     2.0671322274     3.0534666539
C     2.9765899021     1.6451089889     3.0218571403
C     0.4321386781     3.9682247659     -0.4502657795
C     1.7680513784     3.9490387853     -0.0793858356
C     -2.290454891     3.6626588747     -1.1570093154
C     -1.9573047109     3.8113383441     0.2102350632
C     -0.5671853497     3.8715307604     0.5973937324
C     -2.921132854     3.3766682898     1.1408444642
C     5.1191225045     -1.2955285758     0.4283570408
C     4.6845668048     -1.2230208858     1.8161702055
C     5.3760517325     -0.1325862689     -0.2698467974
C     4.522656122     0.0089917612     2.4251876636
C     3.3153199145     0.2558734196     3.1819064602
C     -0.1169309727     -1.2413833762     3.564170356
C     -1.4060425228     -0.7749439626     3.8244066377
C     0.9653541951     -0.2711813106     3.5955451447
C     2.308493699     -0.7212879788     3.3260798634
C     2.5222111123     -2.0518076499     2.7678634771
C     3.7239550408     -2.266941298     2.0432878351
C     -0.730524748     1.5706742645     3.5266624794
C     0.6456113507     1.1283638568     3.5113379465
C     -1.7061214766     0.6340928193     3.894743204
C     2.6219867766     -3.843244334     0.5597854835
C     4.4114861687     -2.3973019715     -0.1995136783
C     3.7164782079     -3.0798564958     0.8502150301
C     1.3708604725     -2.908612587     2.4799765455
C     0.0259704201     -2.5093150016     2.8825691198
C     1.5003375558     -3.8641812902     1.4547504667
C     2.1247862343     -3.9134475478     -0.7825347717
C     2.6111846942     -3.0603254451     -1.7836326823
C     3.8291450327     -2.285723584     -1.4877311768
C     4.0837629896     -1.0427106665     -2.2093079546
C     4.842810673     0.0048892932     -1.6118070696
C     3.1398390862     -0.6461807058     -3.1769372119
C     0.7316787542     -4.2561340538     -0.6939342805
C     -1.5580759065     -3.9544046111     -1.27285392
C     -0.2038321726     -3.8801536233     -1.6781421873
C     0.2077884444     -2.9624320675     -2.7160216721
C     1.627817105     -2.5896891784     -2.7757994705
C     1.9552985447     -1.4311299095     -3.4788819501
C     -2.5813979465     -1.4584871733     3.3687329196
C     -2.4691182594     -2.5486266836     2.4869916833
C     -1.1423847523     -3.1139963959     2.283052557
C     -0.9477441934     -3.9621462826     1.1162811431
C     0.3630588506     -4.2580521908     0.6875288505
C     -1.927964085     -4.0271535172     0.1143055386
C     -2.5682308609     -3.2248299976     -1.9418911117
C     -2.2162698474     -2.2974576704     -2.9458134755
C     -0.8104225758     -2.1200896699     -3.3144053298
C     -0.4259267273     -0.8456399636     -3.8851639516
C     0.9474156235     -0.5486660197     -3.9713294172
C     -3.1323506871     -1.2265689009     -3.1577477348
C     -3.6481075905     -2.9659224752     -0.9984459445
C     -4.9905189933     -1.2472105865     0.0599118666
C     -4.4890808137     -1.8353925021     -1.1287943849
C     -4.2745156076     -0.9933714849     -2.2498842716
C     -3.6481317463     -0.4876542668     3.2714035375
C     -4.6021153313     -0.6037237563     2.2657897512
C     -4.5374787927     -1.7123011356     1.3592836297
C     -3.5229304279     -2.6992147472     1.469821196
C     -3.2080217661     -3.4011738818     0.273946746
C     -4.4845382984     1.8019483441     1.8147840272
C     -3.4981023644     1.9262850312     2.8644021052
C     -3.0960767763     0.8038209454     3.5826890682
C     -5.0275146254     0.5627621035     1.521848317
C     -3.4403223317     2.9456701519     -1.5642153953
C     -4.3296333127     2.3456724528     -0.6250183853
C     -4.114965173     2.695762697     0.7347531452
C     -4.5195856304     0.3942886838     -2.1694098135
C     -3.5768486995     1.0260588809     -3.0723898965
C     -3.0755340357     2.2645223007     -2.7993034293
C     -5.2379653483     0.1653737723     0.138877551
C     -4.9064491271     1.0262087582     -0.9380634708


