98

 C     -2.2636756198     -3.85039696     -0.9556683023
C     -3.4254649897     -3.1017932928     -0.6810898194
C     -3.7705476835     -2.9839868489     0.6970959009
C     -1.4014573632     -4.3204875558     0.0892180165
C     -1.6026734185     -3.9602729835     1.4382402596
C     -2.8670742514     -3.3883695344     1.7349932793
C     -3.8239988228     -2.0757652169     -1.63116526
C     -4.7032905363     -1.0583604022     -1.1569333526
C     -4.6813822832     0.2629400597     -1.6966178246
C     -2.9330965043     -1.7609715857     -2.7438614019
C     -3.0159316325     -0.4699836119     -3.3087782517
C     -3.8759352311     0.5483972502     -2.7760976198
C     -1.4512701829     -3.6076389165     -2.120072546
C     -1.6758997966     -2.4781741391     -2.9331163257
C     0.7995680309     -2.4013380805     -3.3866837402
C     -0.512639909     -1.8293924289     -3.5508896777
C     -0.6115473428     -0.4213850364     -3.909908948
C     -1.8619665631     0.1918806681     -3.8349252567
C     1.9374866712     -1.5945820587     -3.6665288778
C     -0.1296730443     -4.0522566237     -1.8246639802
C     2.2282052656     -3.6689186139     -1.7892019816
C     0.9979275486     -3.5231345754     -2.4759338402
C     -0.6335677498     -2.7352451718     3.3313442022
C     -0.4218907988     -3.6134583504     2.2498877539
C     0.9204887631     -3.6832035028     1.6967315471
C     1.0757162157     -4.2120363067     0.3413620953
C     -0.08502983     -4.4388960103     -0.4420599506
C     2.2540304163     -3.9647746241     -0.3882519043
C     -2.2566408011     3.7171198433     -1.7502389967
C     -3.3424132759     2.817288745     -1.8747331697
C     -3.2224906805     1.8345608997     -2.8952207207
C     -1.9855754398     1.6058489967     -3.5641865767
C     1.8054855357     -0.1843278775     -3.8530007717
C     0.5651574832     0.4481772575     -3.8975272412
C     0.4727111356     1.838741941     -3.4687032086
C     -0.8404581008     2.4066261542     -3.3195137449
C     -1.0353060511     3.5167905166     -2.4609359573
C     -4.1340369212     2.4871458946     -0.6745714773
C     -4.8059391288     1.2406232876     -0.6167239617
C     -1.8870659376     4.2734703308     -0.4629769964
C     -2.5735350206     3.9066367251     0.6692454289
C     -3.7189536491     3.0185550097     0.5772704457
C     -0.4594609299     4.4291736986     -0.4023815163
C     -1.851862271     3.6254519145     1.87806701
C     -0.447733388     3.752730715     1.957527785
C     0.2706503281     4.2273300742     0.787991696
C     3.5093375576     3.050165061     -0.7214466393
C     2.2533940263     3.6735730372     -0.6699338579
C     1.6841487468     3.9758513036     0.6437278052
C     2.3717782237     3.525662266     1.7915866626
C     2.9710798916     0.4768146455     -3.3211261207
C     2.862988855     1.7656019733     -2.7562766082
C     1.6010900097     2.4630630149     -2.8026463035
C     1.3581468228     3.4965732889     -1.8118542722
C     0.0634851879     4.0027189918     -1.667733651
C     3.8139366172     2.0848755744     -1.7521128296
C     -3.7315468007     2.2332345413     1.7622323857
C     -4.2837391087     0.9383685852     1.7965465373
C     -4.924913567     0.504049139     0.5961342405
C     -4.9569932631     -0.9044854481     0.2532072239
C     -4.4977297647     -1.8257852847     1.1618119754
C     -2.5148989131     0.3105876983     3.4870895092
C     -3.7109926732     -0.0375627548     2.7174140406
C     -3.9412990066     -1.4024130279     2.4263529565
C     -1.696446727     -0.7408801378     3.9486153589
C     -1.9173035419     -2.1033619788     3.5698358356
C     -3.005018589     -2.4268463018     2.8019771246
C     -2.5387930113     2.5696827492     2.538646789
C     1.6358800557     2.8997223327     2.8669255376
C     0.2271129453     2.9068264391     2.9105711584
C     -0.4467709721     1.7887704036     3.5360962613
C     -1.874185173     1.6088157911     3.3289971073
C     0.3615175644     0.6519960145     3.9405661079
C     -0.2832419298     -0.5751325264     4.1016576439
C     3.6922823155     1.831459955     2.6944531506
C     2.4245923661     1.8096495711     3.3685180517
C     1.7984027397     0.6068308133     3.7399458184
C     4.3355952162     0.6408206757     2.4091369512
C     3.7097267912     -0.6018397201     2.7650835664
C     2.4620312229     -0.6538705084     3.4096779945
C     4.9429277523     1.4462543231     0.1761551215
C     4.2324404268     2.6773598398     0.4622319807
C     3.6501747131     2.8866796913     1.7045249147
C     5.0002209881     0.448628476     1.1341541088
C     3.8340696048     -0.5177322408     -2.7806959025
C     4.6224879635     -0.2642427317     -1.6240663744
C     4.6912089773     1.092265381     -1.2083549505
C     4.0677465899     -2.5556716161     -0.8473200444
C     3.3420469253     -2.8000449464     -2.0612778085
C     3.1972045091     -1.7990762505     -3.0100804728
C     4.8477123826     -0.9398061445     0.7525094085
C     4.7234183378     -1.3187636112     -0.606224001
C     0.368878499     -1.8241893429     3.7501851309
C     1.6692059103     -1.8621484582     3.242706485
C     1.9820502285     -2.8620069963     2.240088069
C     4.0661678418     -1.5845651019     1.7727720054
C     3.2193346324     -2.6873103676     1.4878703511
C     3.3455373586     -3.2324657537     0.1927822467


