98

 C     4.8162037271     0.3691134214     0.4993751959
C     4.4250010509     1.0645454855     1.6686655532
C     4.3965137977     -0.9274987135     -1.9874115466
C     4.4551017306     0.4387296893     -1.9437682037
C     4.787982793     1.1052004447     -0.7238549628
C     3.4120273634     -1.5745887278     -2.8141751931
C     4.2085971739     2.4176800872     -0.8042708154
C     3.7770149935     3.103930273     0.360545282
C     3.9152467977     2.4375249358     1.6066728389
C     2.6964742946     4.0087881742     0.22382075
C     3.430719609     2.4846567995     -2.0097841735
C     2.2816913604     3.2891106852     -2.1193410878
C     2.0362127375     4.1895926365     -1.0481508938
C     -0.282565746     4.3848552679     -1.6921207692
C     0.7125970762     4.633573467     -0.778933551
C     0.9634995807     -2.8769920563     -3.0789534538
C     1.0234425858     -1.5074096373     -3.4523603564
C     2.3100705383     -0.838706601     -3.338389289
C     2.3512718889     0.6149559223     -3.262673497
C     3.493150472     1.2220017981     -2.6719831396
C     -0.1494955556     0.7059743993     -3.5448257802
C     1.1286627049     1.3857979652     -3.3708289767
C     1.1640757514     2.7750893135     -2.9164302711
C     -0.0519904682     3.4546401046     -2.7849744672
C     1.7061177374     4.1555398301     1.2502652055
C     1.7452895508     3.3723416819     2.4130976467
C     2.9455359472     2.613388115     2.6273918126
C     2.9077832041     1.3759223645     3.3620137692
C     1.7457476454     0.9837841792     3.9522029205
C     0.4465198573     4.5028383818     0.6303327502
C     -0.796292886     4.0285335788     1.0945988681
C     -0.7993738469     3.1756149013     2.2919461455
C     0.4668356424     2.9011313063     2.9574683057
C     0.5305213443     1.7734962384     3.8087110864
C     -3.1287721427     2.4167808759     1.6801802117
C     -1.942720172     2.3272453326     2.5328304752
C     -1.7874977698     1.1311019329     3.3440780137
C     -0.5457140565     0.8815846637     3.9299155417
C     -4.1104178386     1.4044417116     1.7958244733
C     -3.0948390033     3.2048819744     0.4578166249
C     -1.8992819964     3.9699977421     0.1419920868
C     -3.9556434884     2.8208308356     -0.6090771613
C     -1.612742957     4.2141577523     -1.2308514667
C     3.4085844561     -0.9785030722     2.6752931078
C     2.1754995805     -1.3951941343     3.3297896265
C     3.7686494907     0.3974828598     2.7358019382
C     1.401121903     -0.4083167175     3.9998114084
C     -0.0070053431     -0.4801055456     4.0455103922
C     -0.7283264627     -1.5835631649     3.5795858711
C     0.0181549652     -2.6699697897     2.9821697191
C     1.4613801472     -2.5698947257     2.8819928513
C     2.1227907819     -3.4090529544     1.9533776221
C     -2.0848808006     -3.4303905611     1.982578123
C     -0.697202746     -3.5667800767     2.093532573
C     -3.8838188176     0.1919326023     2.5620115932
C     -2.6766920427     -0.0107554134     3.2314755223
C     -2.1376271198     -1.3721543005     3.3240320914
C     -2.8272365899     -2.4047674192     2.6735003477
C     3.3615194678     -3.0236104811     1.3380601327
C     3.9475153675     -1.7537179279     1.5767802077
C     4.6448284007     -1.0849465885     0.4740593216
C     3.4070601839     -3.6524565612     0.0404635219
C     3.9776105335     -2.9756519936     -1.0187440086
C     4.6217909962     -1.7151281434     -0.7986701635
C     2.1757862023     -4.3946334605     -0.1502734158
C     3.2617185796     -2.9008901361     -2.293624517
C     2.0703954482     -3.5602771763     -2.4572281728
C     1.5402875258     -4.3890976976     -1.3889239204
C     -0.0117408657     -4.2363121077     1.0052645322
C     1.3924103933     -4.2524672491     1.039866951
C     0.119449997     -4.3165523179     -1.4476627739
C     -0.6746872347     -4.3314019704     -0.284905692
C     -4.0052528254     -2.956840346     0.7444030104
C     -2.7852952595     -3.7041697034     0.7439591622
C     -2.0404441595     -3.8997102518     -0.4338742743
C     -4.4840149905     -2.4099798188     -0.4430548733
C     -3.658450917     -2.4826807965     -1.6219015978
C     -2.4524450745     -3.18140095     -1.6366804057
C     -5.2180970139     -0.3821411257     0.7349025975
C     -4.5954793898     -0.891218229     1.9342442201
C     -4.0446424382     -2.1655143756     1.9549206299
C     -5.1484084701     -1.1288125693     -0.4442526104
C     -4.709378658     0.911821242     -1.7368528569
C     -4.8312781537     1.6990347528     -0.5119513703
C     -4.978130766     1.048067407     0.7009855439
C     -4.7942264401     -0.4643209463     -1.6858739565
C     -2.2857925962     3.4489891125     -2.2495735545
C     -3.7182292258     1.5312452458     -2.5613346113
C     -3.4418440134     2.808127542     -1.9595840276
C     -0.2310160372     -3.4293822254     -2.5405561754
C     -1.4361676357     -2.7336412701     -2.5728125897
C     -1.4645595427     -1.4067471965     -3.1585472452
C     -0.21242412     -0.7490988257     -3.4972324184
C     -3.7982466397     -1.2516922538     -2.3634778319
C     -2.6926098936     -0.6506248591     -3.02752689
C     -2.6620181124     0.7900118291     -3.1625105729
C     -1.3848457342     1.4559309027     -3.4144849727
C     -1.2935893197     2.8288954003     -3.0889036216


