98

 C     4.9355719044     0.0049911786     1.1460701056
C     2.4254846981     -3.1302926328     2.2658532103
C     3.5259318022     -2.3079444219     2.0062818296
C     3.6344786992     -1.1580144318     2.8370903216
C     4.3353060819     0.0110669685     2.3801917487
C     0.1756023378     -3.4089403344     2.7808792925
C     1.3610616727     -2.7250268814     3.1544275167
C     1.302227745     -1.4145954135     3.6781909968
C     2.5202638239     -0.6983664829     3.6027403155
C     -1.0846644999     -2.8190161609     2.9121194112
C     -1.1748285244     -1.4402726946     3.4257380822
C     -3.3303415897     -2.6355929273     1.9410152875
C     -2.1373032526     -3.3490895924     2.0473559291
C     -1.8003471691     -4.1636941964     0.9262078806
C     2.4269944687     3.1520971858     2.2356517108
C     3.5270458547     2.3267646154     1.9840010071
C     3.6350445639     1.184822734     2.8258291479
C     2.5206090261     0.7330912259     3.5958590245
C     0.0205387385     -0.7191186123     3.7476465507
C     0.0208948447     0.7564351466     3.7405464056
C     1.3029180652     1.4505968846     3.6644154161
C     1.3623798015     2.7559053579     3.1280787764
C     -3.5194800151     -1.3831740402     2.642965106
C     -2.4188884069     -0.7096477752     3.2462481567
C     -1.1741242053     1.4750354734     3.4117117973
C     4.0936628668     2.305949699     0.6370358616
C     4.8921476765     1.1858261271     0.2931793446
C     4.9975096543     0.7254021617     -1.0546965484
C     3.3903277715     3.0194934067     -0.4333788806
C     3.5302674207     2.5478410972     -1.7532221162
C     4.3413950263     1.4099337458     -2.0673761917
C     0.5101510391     4.2733813405     1.6047146025
C     1.8520479124     3.9850732776     1.2100911112
C     2.205802663     3.817329475     -0.1467488631
C     -0.438319921     4.5576873288     0.6562689716
C     -0.1270977068     4.3936921083     -0.7323090916
C     1.143063337     3.9555921006     -1.1469333083
C     -1.7983441147     4.1746067306     0.8861214955
C     -3.3290654308     2.657065133     1.915567577
C     -2.1356854963     3.3709787154     2.015046659
C     -2.4185367038     0.7433182035     3.2392585832
C     -1.083299112     2.8487354408     2.8848659549
C     0.1772494585     3.4367655587     2.747971148
C     -3.5188029748     1.4115430404     2.6295243664
C     4.3407157981     -1.4304949071     -2.053721565
C     3.6841186946     -0.7050539492     -3.1240899285
C     4.9971590945     -0.7365717759     -1.0476691378
C     3.6844480788     0.6745527496     -3.1307214783
C     2.4827607926     1.3831019599     -3.4837021175
C     2.4820904897     -1.4163876474     -3.4702440177
C     1.3053563833     -0.7473505224     -3.8693271827
C     1.3057053814     0.7108223513     -3.8763362442
C     1.1822038413     3.1732126336     -2.3655890855
C     2.407497352     2.557524764     -2.6816997154
C     -1.3372577825     3.963194243     -1.3776816424
C     -1.3294411018     3.0696525803     -2.4595188511
C     -0.0295166846     2.659769677     -2.9779265194
C     0.0652506961     1.432393226     -3.7375824301
C     -1.1125911069     0.695250366     -3.9604077718
C     4.0925574877     -2.3003505261     0.6591808702
C     3.3888793138     -3.0238161538     -0.4043262544
C     4.8915774434     -1.1839682127     0.3045698237
C     3.5290419329     -2.5649417108     -1.728644216
C     1.1411620086     -3.9656498352     -1.1088533478
C     2.2039713087     -3.8182918571     -0.1100405955
C     1.8501369629     -3.972816947     1.2483476548
C     -0.1292094723     -4.3991349032     -0.6900385445
C     -0.4405097835     -4.5496238341     0.7000519118
C     0.508100562     -4.2566706749     1.6457241967
C     2.4062647044     -2.583008686     -2.656988034
C     -1.1129328288     -0.7314263294     -3.9535497597
C     0.0645554043     -1.4669574138     -3.7236454776
C     -0.0308003794     -2.6869271754     -2.9522221773
C     1.1806747448     -3.1950408114     -2.3349726831
C     -1.3309207429     -3.0911840073     -2.4299006483
C     -1.3391629993     -3.974280196     -1.3395219401
C     -3.2247104391     -0.014657921     -3.348939277
C     -2.4020431176     -1.1791565563     -3.5001563354
C     -2.537590658     -2.2961890769     -2.6639806587
C     -4.2588276511     -0.0100538593     -2.4428395878
C     -4.5224534207     -1.1867073071     -1.6591442576
C     -3.6539457714     -2.3037214954     -1.704167331
C     -3.6528426701     2.2903192086     -1.7262519286
C     -2.5364936461     2.273022896     -2.6859469235
C     -2.4014840512     1.1479369339     -3.5113421547
C     -4.5218849438     1.1742070837     -1.6704952989
C     -4.8876837574     1.4227542261     0.743894279
C     -4.0936321526     2.6183087306     0.7039252425
C     -3.5187147438     3.0843995306     -0.5134897709
C     -2.3946991825     3.9229417199     -0.3841077269
C     -5.1227399047     0.729096182     -0.4278733621
C     -4.8883662893     -1.4118526268     0.757522224
C     -4.5602227767     -0.6820932331     1.9721209889
C     -4.5598876624     0.7045483199     1.965452975
C     -5.1230912587     -0.7293809276     -0.4208620849
C     -2.396584565     -3.9239676695     -0.3463844593
C     -3.5201977331     -3.0861677387     -0.4838244075
C     -4.0948890299     -2.6081177578     0.7290510613


