98

 C     -3.2762702471     2.5174911874     -2.0200454587
C     -3.4966748564     1.276367567     -2.6501573793
C     -4.3733307197     0.3914477309     -1.9626954622
C     -4.2547093343     -1.0367986343     -2.1313682473
C     -3.3384792417     -1.5373729819     -3.0197704191
C     -2.1107491588     3.2915298372     -2.3081426764
C     -1.0666375169     2.8013248138     -3.1113254676
C     -1.2130540547     1.4653598876     -3.7050519458
C     -2.4473175952     0.7497503598     -3.5196081691
C     -2.4385236105     -0.6572391635     -3.7395840627
C     1.2383733823     1.3576777899     -3.9527697226
C     -0.0135723857     0.7135143423     -4.0527478968
C     1.3790321266     2.6763277316     -3.3670239006
C     0.2630009577     3.3693972098     -2.8833841453
C     0.5002152967     4.21282172     -1.7542931968
C     -1.6960433648     -4.1083158147     -0.964000461
C     -2.7927207759     -3.3558327423     -1.4159698954
C     -2.6523377537     -2.7585150174     -2.7050237143
C     -1.381202187     -2.6959535123     -3.3509312157
C     -0.2650488979     -3.3861803723     -2.8635213238
C     -0.5019762671     -4.2229712251     -1.7294479334
C     1.8340424895     -4.0892065221     -1.099799993
C     0.5608679088     -4.4911486905     -0.8049899195
C     0.0112255117     -0.7371934163     -4.048500214
C     -1.2406938475     -1.3807579252     -3.9444293588
C     2.4362557462     0.6353686966     -3.7439943417
C     2.4451065574     -0.7703071346     -3.5157796143
C     1.2107967577     -1.4869901417     -3.696710108
C     1.064535013     -2.8194566638     -3.095130708
C     2.1088510941     -3.3049462001     -2.2893563623
C     -3.6660864355     -2.7480839169     -0.4200636521
C     -4.4828731984     -1.6843200906     -0.8533642859
C     -4.8960229019     -0.64384066     0.0428912874
C     -3.2942305325     -2.8093794465     1.0039794409
C     -3.8418526542     -1.8537131657     1.8691625741
C     -4.6146794734     -0.7397266856     1.3804636252
C     -1.3353569214     -4.169279813     0.4522152516
C     -2.0381706869     -3.4337863609     1.4214409382
C     0.1374390984     -3.202361444     2.6537852773
C     -1.2964447297     -2.967513741     2.5833274295
C     -1.8740909754     -1.9121313183     3.4047132533
C     -3.1398271159     -1.4094174485     3.0484660774
C     0.9162527171     -2.4121495556     3.5413773197
C     0.8539800155     -3.8458590286     1.5781698735
C     2.2476690859     -3.4920045892     1.277303781
C     0.0665398364     -4.3963741352     0.5413743228
C     2.7058515862     -3.6556384465     -0.0474580222
C     -2.569999455     0.8398896951     3.8509009169
C     -4.2614379563     0.4358879597     2.152335463
C     -3.4742686947     -0.0210703442     3.2546105327
C     -1.3641846262     0.3219275882     4.3919199756
C     0.3605600172     -1.3358649205     4.2698705706
C     -1.0167042728     -1.03846036     4.2012988312
C     -2.3117308045     2.1257772306     3.2648088971
C     -2.9606673478     2.5414306716     2.0928187832
C     -4.0120228801     1.6792554551     1.5278609626
C     -4.330294405     1.7779569028     0.1058912382
C     -4.7828026899     0.6386977035     -0.6153907724
C     -3.666712286     2.756274604     -0.6562277349
C     -0.854898892     3.85510151     1.5558222269
C     -2.2486660544     3.4994938563     1.2573889943
C     -2.7071858693     3.655365965     -0.0681905007
C     -0.0677204723     4.3995337194     0.5156189304
C     -0.5623943404     4.4864188602     -0.8311534601
C     -1.8356434092     4.0827582069     -1.1232808859
C     -0.9166714582     2.4329222578     3.5274117653
C     3.1392871349     1.427317826     3.039355515
C     1.873638054     1.9321098884     3.3929712606
C     1.2957834189     2.9826562831     2.5655582739
C     -0.1380856503     3.217914427     2.6350033894
C     2.037212958     3.4421115009     1.4007735239
C     1.3341478195     4.1719094378     0.4274315085
C     -0.3607926242     1.3609277478     4.2620628857
C     1.3639849264     -0.2961225608     4.3933818887
C     1.0164544981     1.0631262618     4.1948839612
C     4.6137170754     0.7478600603     1.3749308958
C     3.8410116692     1.8646923584     1.857292038
C     3.2931665516     2.8152709612     0.9866602082
C     4.8947164039     0.6441356231     0.0378722858
C     4.4813374189     1.6793453086     -0.8643617257
C     3.6646596455     2.7456299081     -0.4370926032
C     2.5696621767     -0.8172480666     3.8551023474
C     4.260667579     -0.4232113314     2.1537675019
C     3.473780339     0.0402005697     3.253546946
C     3.6652324495     -2.7600161439     -0.6409991953
C     4.781329488     -0.6422386054     -0.6128538668
C     4.3290058765     -1.7772519695     0.1152078313
C     4.0110954339     -1.6702163235     1.5366549867
C     2.9598838334     -2.5290662787     2.1069257151
C     2.3112465013     -2.1065503094     3.2766251015
C     3.3363923479     1.5197041491     -3.0295768941
C     4.2528459979     1.0243441489     -2.1384885241
C     4.3715131176     -0.4028890883     -1.9614786896
C     3.4946868693     -1.2918215215     -2.6435234385
C     3.2744473772     -2.5292347615     -2.0060965619
C     1.6944757735     4.1026485653     -0.9884934
C     2.7910409905     3.3475300605     -1.4363210499
C     2.6503327047     2.7426724433     -2.7218180276


