98

 C     -1.8635193037     1.3541194059     3.698341031
C     -3.0283522869     1.6972217962     2.9874258427
C     0.8133188778     0.545355313     4.2381935902
C     -0.1618145641     -0.4667945719     4.0867101642
C     -1.548034991     -0.0715220381     3.8762791107
C     -2.4806735748     -1.05677324     3.3988507365
C     -2.0144952251     -2.3897755075     3.2292919264
C     2.1692862928     0.3300522029     3.9013911847
C     2.6375032266     -0.8890373788     3.3353229072
C     1.7069226886     -1.9881751071     3.258872655
C     0.3322995971     -1.7762755178     3.7003514736
C     -0.6475917399     -2.7269044314     3.3357944229
C     3.1521328523     -3.0169074782     1.5435494144
C     1.9978852315     -3.0978622792     2.3471565704
C     4.0053600809     -1.8750688496     1.5460350484
C     3.7870789989     -0.8089223396     2.4385518947
C     4.2625619501     0.4759531178     2.011034345
C     -3.6483332646     -0.6629239646     2.6158412749
C     -3.859576285     0.7012491148     2.3824288521
C     -2.5799159975     -3.2646957232     2.2145731807
C     -3.6055805905     -2.8500613308     1.4084597699
C     -4.1790472312     -1.5375824574     1.6178284666
C     -1.5381003806     -4.0815930984     1.658611518
C     -1.4761071568     -4.3168196396     0.2495879808
C     -0.1957711819     -4.5483755406     -0.2732025456
C     0.9243112614     -3.9628550966     1.8667830877
C     -0.3579001077     -3.8044539243     2.4053574406
C     0.9690124467     -4.4937575957     0.5387432372
C     -4.3041608461     -2.059753967     -0.6265821002
C     -4.6285662897     -1.0517785613     0.3604635234
C     -4.5707801114     0.3334398829     0.0264227386
C     -4.3164326705     1.1954662944     1.1061833046
C     -3.9774080554     -1.666505812     -1.8960494854
C     -2.4864063275     -3.7511160473     -0.6323885326
C     -3.6029898086     -3.1456717197     -0.0107838894
C     -2.9097279289     -2.3263443608     -2.5908564501
C     -2.1021624311     -3.2959645605     -1.9766843343
C     -3.9712977983     -0.2630160039     -2.2692690314
C     -4.1849548787     0.7687671929     -1.3127980892
C     -3.3214084262     2.9326913706     -0.3683339217
C     -3.7609653536     2.4924584228     0.9023621623
C     -3.0730115027     2.8576878097     2.125391585
C     -2.0395151722     3.7563543806     2.1056019175
C     -2.6956459316     2.2343725451     -2.704220661
C     -3.5192925403     2.0470900732     -1.5156091519
C     -1.716373506     3.266416393     -2.6934826379
C     -1.457119587     4.0516018511     -1.5173019258
C     -2.2488729126     3.9270856244     -0.3724812572
C     -1.617516834     4.3183462565     0.8478134178
C     -3.0600729101     -0.1189471283     -3.3399669134
C     -1.2285385994     1.0393708364     -4.3359512648
C     -2.4406771655     1.1194332982     -3.6077970202
C     0.1768218386     -4.1112770624     -1.6206931757
C     -0.7083965611     -3.3849859391     -2.4307236534
C     -0.1332488505     -2.4240454137     -3.3589558957
C     -1.0257051098     -1.4261162317     -3.937799682
C     -2.3656390025     -1.378922322     -3.5221611098
C     -0.5133187254     -0.210391827     -4.4602300262
C     0.4986306228     1.9453020867     4.0395819008
C     -0.8033186042     2.3591381783     3.7398561887
C     -0.9042367384     3.5461200187     2.9513492405
C     0.2282010856     4.0509186417     2.2395586844
C     1.5175047664     3.531496618     2.4201211648
C     1.6501002016     2.5876179492     3.48307833
C     3.6580600721     1.676491076     2.4940142128
C     2.6926148914     1.6118369409     3.4658623991
C     -0.0416756267     4.2969338004     -1.4399923163
C     0.6305107878     4.3678945199     -0.209212319
C     -0.2106845459     4.4949865918     0.9329193178
C     1.9642287195     3.7983444711     -0.0829063178
C     2.434437128     3.4703633293     1.2683343304
C     3.538763581     2.6219209191     1.3945053376
C     0.5720547489     3.6929139108     -2.5875967854
C     1.8329799809     3.0901020003     -2.5041211628
C     2.5726616111     3.175069264     -1.2342678546
C     3.9543795148     1.238059533     -2.0085203034
C     3.6957714106     2.2647146197     -1.0429066762
C     4.1663780177     2.0202347059     0.262234645
C     1.0616996362     1.4853840578     -4.2667044638
C     -0.2434276045     2.0630673702     -4.2267403841
C     -0.4876476214     3.1596453352     -3.4172407165
C     3.1246088878     1.0688045222     -3.1492371818
C     2.0951113406     1.9840303117     -3.4429318945
C     1.5755238648     -3.8909273476     -1.6523641235
C     2.161508193     -2.8851140311     -2.4516923107
C     1.2941217522     -2.1601788635     -3.3545464692
C     2.9961030712     -0.3404542943     -3.4120006921
C     1.7809607086     -0.8838788083     -3.890410608
C     0.8788830614     0.0577124126     -4.4349182942
C     3.8922114624     -2.6287471529     -0.658787174
C     3.1559067505     -3.5303273366     0.1832350226
C     2.0731646716     -4.1906887445     -0.3225305422
C     3.8030879283     -1.0288439942     -2.4565523354
C     3.4202032222     -2.2952378298     -1.9661271168
C     4.6632669195     0.7158241157     0.6621711187
C     4.4469984011     -0.0528261453     -1.6229877861
C     4.7533397562     -0.3419699513     -0.2710490521
C     4.4900783479     -1.6533219163     0.1971099668


