98

 C     -4.3160500797     -2.02716837     -0.5450268194
C     -4.5318304908     -1.2550874126     0.6183719814
C     -4.9907247867     0.0840344397     0.4261346256
C     -4.7673328656     1.0811548279     1.4186551571
C     -4.1287706988     0.7494208766     2.6047008847
C     -3.4367073189     -3.1346892899     -0.5387046674
C     -2.6482729078     -3.4766081917     0.5882760804
C     -2.7739344928     -2.6586728738     1.7826268856
C     -3.756494827     -1.5959462219     1.8113339159
C     -3.6034818891     -0.580747147     2.7961631912
C     -0.5657516439     -3.468248695     2.5352581863
C     -1.6557163127     -2.6107497425     2.7267892108
C     -0.4330011202     -4.2627061724     1.3265705698
C     -1.4214570858     -4.2228475351     0.3307060357
C     -0.9433847841     -4.3783406779     -1.003728717
C     -3.5078287413     3.1932550179     1.2955700117
C     -2.905790764     2.8792939084     2.5766772723
C     -4.4389119719     2.3341555112     0.7419570279
C     -3.2056219085     1.6825771743     3.2119468464
C     -2.1432301763     0.9261344728     3.8120631229
C     -1.549366919     3.3405349606     2.5524803471
C     -0.5089673395     2.657528104     3.1980280031
C     -0.8214590835     1.3867820996     3.8528503136
C     -1.4010039028     -1.4327476035     3.5413724476
C     -2.4198086812     -0.4731387078     3.5951566807
C     0.7369978236     -3.1635370967     3.0294592525
C     1.0455933613     -1.9257180491     3.6496192128
C     -0.0534568993     -1.0271925734     3.9035423323
C     0.2185770815     0.3954892084     4.0454805795
C     1.5397482816     0.847526066     3.9246184903
C     1.3135128985     3.9484354238     -1.303266643
C     0.0352760585     4.0245043243     -0.7403184765
C     -2.4912023895     3.7945816704     0.4649308454
C     -2.4085812625     3.5201965635     -0.9240101878
C     -1.3139958714     3.955377762     1.270523808
C     1.8522050999     2.1106287119     3.2819923758
C     0.8413134378     2.9328591382     2.7528234164
C     1.1036513021     3.6387124338     1.5156631918
C     -0.0358345045     4.0291281947     0.7070909402
C     2.4085376031     3.528518079     0.8940194705
C     2.4908772698     3.7940339834     -0.4966584314
C     -1.1038083068     3.627719858     -1.5463550323
C     -3.4467605505     2.6754471905     -1.5116227287
C     -4.4421498783     2.0915117156     -0.6680638542
C     -0.8407422845     2.914181067     -2.7789401319
C     -1.8507864898     2.0875255761     -3.3028035781
C     -3.1339507092     1.9810463781     -2.705264806
C     2.9064129536     2.865585033     -2.6024679877
C     1.5495214343     3.3255862256     -2.5812398573
C     0.50982428     2.6373686579     -3.222366711
C     3.2074754793     1.6651082909     -3.2300202178
C     2.1458626323     0.9037286901     -3.8252467648
C     0.8236183481     1.3627525017     -3.8689905018
C     4.4400896366     2.3338508537     -0.7642810833
C     3.5081235158     3.1884045193     -1.3234111997
C     3.1354765891     2.0016161089     2.6851473805
C     3.4475806254     2.688633675     1.4870569011
C     4.443568976     2.1002951533     0.6472746598
C     -3.6240525078     0.6508355731     -2.9569370797
C     -4.437849926     -0.0112234524     -2.0060270863
C     -4.8478440583     0.7243384762     -0.8611041815
C     -4.2659563087     -1.4104749251     -1.8626353838
C     -2.6277416872     -0.0648249718     -3.7039939305
C     -2.4094069534     -1.4496225548     -3.5191635835
C     -3.3343817632     -2.1302287437     -2.6671611902
C     -1.6654049911     -3.8007325417     -2.1077285778
C     -2.9000921666     -3.2540050084     -1.8892766889
C     -0.2153999979     0.3691751821     -4.0552314924
C     -1.5370332724     0.8206301749     -3.9372803041
C     2.4238712633     -0.4938352766     -3.5993312039
C     1.4060497425     -1.4541186256     -3.5393611761
C     0.0580888126     -1.052282582     -3.9041309745
C     -1.0400415872     -1.9502782982     -3.6444237952
C     -0.7301843704     -3.1837615374     -3.0163040207
C     3.6076550096     -0.5950834654     -2.799667706
C     3.7617003377     -1.6037638585     -1.8083206738
C     2.7802317088     -2.667287159     -1.7727647064
C     1.661962757     -2.6265891266     -2.7172096482
C     0.5728764263     -3.4839511742     -2.5201559655
C     3.4434783825     -3.1276601917     0.551583636
C     2.6554001288     -3.4776395509     -0.5731691625
C     4.994200877     0.0863725669     -0.4339768927
C     4.7697928562     1.0768488127     -1.432894881
C     4.1315767118     0.736827859     -2.6167787855
C     4.321686115     -2.019220591     0.5507668548
C     4.5366820928     -1.2544330854     -0.6175807352
C     3.6269426955     0.6735561324     2.9453789482
C     4.2709580379     -1.3941031825     1.8643762486
C     4.4414177229     0.0062198678     1.9987504616
C     4.8506612984     0.7348102935     0.8491114153
C     1.6728529419     -3.7853889134     2.124871209
C     2.906982283     -3.2388203285     1.9028967245
C     3.3401211031     -2.1096116273     2.6735257425
C     2.4144453301     -1.4244796246     3.5211294834
C     2.6313621741     -0.0382975902     3.6970356089
C     0.4409325798     -4.270741039     -1.3063753241
C     1.4293462848     -4.2234580747     -0.3107912245
C     0.951429167     -4.3708359244     1.0246167838


