98

 C     -5.1841264333     -0.5481531809     0.4654869077
C     -2.5640032124     -3.82543006     0.4319632517
C     -3.6642207758     -2.957586602     0.5652226784
C     -4.2349857615     -2.4848540718     -0.6523274202
C     -4.9914919558     -1.2680120596     -0.6994340106
C     -0.6415105404     -4.5272807819     -0.6091947233
C     -1.9900133725     -4.1067844271     -0.834171655
C     -2.309945321     -3.3019838891     -1.9709018155
C     -3.4806451136     -2.5592213025     -1.8705033473
C     0.29339381     -4.3108642501     -1.5765437714
C     -0.2966188368     -4.3306857771     0.776932629
C     0.9934104917     -3.8938891076     1.1616553582
C     1.0883022076     -3.0570616408     2.3367220629
C     -4.8794761622     1.5652124325     -0.7552661611
C     -4.6363469385     0.8005234146     -1.9771423664
C     -5.1075415837     0.9070063696     0.436432578
C     -4.6612545053     -0.5796272042     -1.9370483788
C     -3.6337823444     -1.3216459044     -2.6009924534
C     -2.5171292785     -0.6895719134     -3.2146416344
C     -1.241562595     -2.7973429159     -2.8313915519
C     -0.0057512982     -3.4414819722     -2.7170484979
C     -2.2490065531     3.3981278973     -2.260454488
C     -4.0239838762     2.7136024934     -0.7665327313
C     -3.4084175448     2.7274528444     -2.0709105854
C     -1.2629914137     -1.4284287606     -3.3300861724
C     -2.5116439703     0.7543288478     -3.2925712034
C     -3.6166645496     1.4581080572     -2.7247682924
C     -1.195721864     2.8237368736     -3.0748225768
C     -0.0132383798     -0.7276153017     -3.5649622137
C     -1.2395350263     1.4580484646     -3.4559537847
C     -1.6578230296     4.128147437     -1.1776121954
C     -2.0466068067     3.8730478857     0.1651214622
C     -3.2793580144     3.1274590158     0.3757762015
C     -3.4606851143     2.3918457931     1.6165463307
C     -4.4370661838     1.3551148201     1.6300080028
C     -4.2664397908     0.1817646353     2.4500639698
C     -2.3622465134     2.3376327225     2.5965304449
C     -2.36505246     1.2661695547     3.5084525175
C     -3.2554439908     0.1456944367     3.3681626324
C     -0.2925699572     4.3134496139     -1.5480199733
C     -0.9953904599     3.8781835806     1.1866130923
C     -1.0914824797     3.0335213353     2.3559651059
C     0.641342424     4.5233906966     -0.5782874264
C     0.2950316227     4.3175358281     0.8061395837
C     1.9900766068     4.1044055789     -0.8046900774
C     3.4817754755     2.563798822     -1.8498130539
C     2.3111756962     3.3072198866     -1.9464434594
C     2.5196419142     0.7031768142     -3.2074042535
C     1.2436762168     2.8083456684     -2.8113812814
C     0.007748426     3.4517092791     -2.6940017626
C     3.6356644316     1.3311314002     -2.5884016075
C     1.2656193452     1.4427913817     -3.3191888823
C     1.1981040576     -2.8109834933     -3.0924285391
C     1.2423033675     -1.4427770195     -3.464380213
C     0.0161129323     0.7435688966     -3.560026404
C     2.5142417034     -0.740169533     -3.2949921211
C     3.6186835357     -1.4477329747     -2.7307742874
C     -3.7655029118     -2.1544459949     1.7739829071
C     -2.6533726496     -2.1779516265     2.7383596117
C     -4.5923583981     -1.003318867     1.7077646162
C     -2.5072701449     -1.06101728     3.5723324062
C     -1.223386274     -0.676071845     4.0760399687
C     1.1444516917     -0.7903058052     4.0534867675
C     -0.0738199791     -1.4609732156     3.8671420445
C     -0.1320509063     -2.6227399864     3.0030664251
C     -1.4515963635     -2.9989583019     2.499243352
C     -1.4896446931     -3.8820081982     1.4180106776
C     1.4874017084     3.8645791164     1.4454264887
C     1.4482484938     2.9743213931     2.5206923249
C     0.1281882941     2.594749591     3.0206395289
C     0.06907676     1.4272311241     3.87686767
C     -1.1493832206     0.7553371224     4.057475703
C     1.2184310376     0.6409464519     4.081692835
C     3.7628995005     2.13466873     1.7921751861
C     2.649781906     2.1517299303     2.7555456852
C     2.5028283891     1.0292455479     3.5818841699
C     4.5898237902     0.9840062605     1.7191100174
C     4.9914252214     1.2647833784     -0.6858552095
C     4.2348682609     2.4812893244     -0.6313925477
C     3.6628530036     2.9458732942     0.5887067131
C     2.5627703922     3.8145906573     0.460124811
C     5.1828653013     0.53715316     0.4744237086
C     4.8794758056     -1.5680043067     -0.7607390918
C     4.6375948816     -0.7951640091     -1.9777250862
C     4.6624568278     0.5846888301     -1.9283813616
C     5.1063169282     -0.9177795837     0.4355652357
C     2.250557463     -3.3908100519     -2.2808400385
C     4.0240008708     -2.716292754     -0.7805584247
C     3.4097707305     -2.7214203814     -2.08562958
C     3.2512154336     -0.1760760556     3.3704208388
C     2.3606856592     -1.297462435     3.5023085928
C     2.3588161844     -2.3628016777     2.5832376956
C     4.2631514034     -0.2060112795     2.4531377685
C     4.4346217272     -1.3738546408     1.6254316854
C     3.4582593334     -2.4104693535     1.6040403128
C     3.2782063012     -3.137772341     0.3581958115
C     2.0456740542     -3.881932115     0.1412982331
C     1.6582679288     -4.1280504408     -1.2035078894


