98

 C     -0.5511720388     -1.0497795619     3.8582055759
C     0.5468211954     -0.213235116     3.6743417717
C     1.8213054208     -0.8222451839     3.2759175071
C     2.9308380559     0.0472504887     2.9792569736
C     4.0658155175     -0.507690737     2.331094225
C     4.9359590679     0.2911009963     1.4982122844
C     2.7283933504     1.4909439865     2.9242457772
C     3.6523990436     2.2501739537     2.1610304309
C     4.6825046621     1.6378051503     1.3694540277
C     3.1958980801     3.3874333289     1.4058982692
C     1.9804904178     3.9317452099     1.6669289636
C     0.2734707441     1.2036214423     3.4890161618
C     1.3936103714     2.0539573342     3.1594410796
C     1.1050184591     3.3320655538     2.6443427303
C     -1.0967730924     1.6608408564     3.2688392356
C     -2.2036495132     0.7312599662     3.361740164
C     -1.8999342923     -0.5808885866     3.7651830426
C     5.2660134557     0.0829998577     -0.9290256173
C     4.8435563776     1.4621745301     -1.0741665554
C     5.3221394267     -0.4929594322     0.3454917172
C     4.6590298786     2.2521803747     0.046192335
C     3.6480097291     3.2610338868     0.0401890055
C     4.4023385676     -2.5923062918     -0.5228515133
C     4.3053238702     -1.9883950991     -1.8355348243
C     4.8177768621     -1.8303783449     0.5541306028
C     4.6759618615     -0.660918229     -2.0145868524
C     3.8018958835     0.2201393233     -2.7393936731
C     3.1079902325     -2.4832979965     -2.443202213
C     2.2483459962     -1.651831566     -3.1708283966
C     2.600634266     -0.2309546337     -3.2945193487
C     2.794600541     2.4352081553     -2.1251324858
C     3.8950360437     1.5495067514     -2.1604020216
C     -0.9698097886     4.2104968111     -1.1721432903
C     0.3011528709     3.8112022337     -1.6282881175
C     0.3508985001     2.7864627669     -2.6684130096
C     1.5927628981     2.0694681669     -2.873685393
C     1.56167693     0.7635150698     -3.4978279854
C     -0.9058526456     2.2401618069     -3.1702280159
C     -0.8590400812     1.0043148942     -3.846097313
C     0.3355815834     0.2725373834     -3.9519046756
C     2.7096644281     3.3834736979     -1.021828515
C     1.1841788336     4.4434909949     0.5899405578
C     1.4433245116     4.0351076702     -0.7472122745
C     1.3537388274     -4.196571307     0.834701628
C     2.6250084269     -3.62264001     0.8905078874
C     3.2950101899     -3.4968048312     -0.3630271931
C     2.5448140486     -3.505168483     -1.5765707368
C     -0.0002232826     -1.1434409263     -3.8795089093
C     0.8570278009     -2.0735018292     -3.3134733185
C     0.2785292392     -3.1535285098     -2.5045946439
C     1.1703703364     -3.8292732224     -1.5953505555
C     0.6471496744     -4.3669611702     -0.3985849204
C     2.9199497892     -2.6583694791     1.9603444372
C     4.0340174051     -1.8303603801     1.7867558014
C     0.3902471908     -3.9806268828     1.8758897296
C     0.6272712345     -2.9821649422     2.8623597851
C     1.84879821     -2.1991991499     2.829867852
C     -0.5207457236     -2.4367521241     3.4564633177
C     -0.9058511545     -4.1764479975     1.3278197457
C     -2.0504485858     -3.5792502892     1.8788940865
C     -1.8379154352     -2.8120126379     3.057618733
C     -3.8396182667     -1.5090441861     2.6263552893
C     -2.7002796896     -1.7036405011     3.355039224
C     -3.8097109245     -2.6088277701     -1.293978463
C     -2.9662773498     -3.3630532564     -0.4625142557
C     -3.1622336959     -3.2632950112     0.9892890337
C     -4.1350628364     -2.3559951515     1.4748659454
C     -1.4102598382     -1.2548384954     -3.7699199743
C     -1.9966822568     -2.2762154444     -2.9806626667
C     -1.1415760916     -3.1926597168     -2.2588947615
C     -1.6625347207     -3.7697330714     -1.0084626656
C     -0.7464075734     -4.3210430874     -0.1124748613
C     -3.3071221408     -2.0230691581     -2.5258022454
C     -4.8875181571     -0.5764382179     -1.6465995674
C     -4.8186290566     -1.7323377151     -0.7763613549
C     -4.9490304428     -1.5795480874     0.5999141961
C     -5.0751823781     0.6845797943     -1.1180504244
C     -1.9622168411     0.062252031     -3.8142966776
C     -3.190889914     0.3653931791     -3.2202690996
C     -3.9286525923     -0.7500490042     -2.707620185
C     -3.1387947607     3.6288049757     -0.5738982781
C     -2.197070886     3.6398562078     -1.6635429538
C     -2.2075733701     2.6240125687     -2.6278805503
C     -4.1636242715     2.725580269     -0.5472081956
C     -4.3532277646     1.8262095453     -1.6478700695
C     -3.3545545119     1.6934156815     -2.6405615512
C     -0.1442570559     4.5074634658     1.0963061171
C     -2.4453156203     3.9555392809     0.6379840884
C     -1.1925961963     4.5061774113     0.225840633
C     -5.0887997678     -0.2428354247     1.1610200523
C     -4.290092216     -0.1682924622     2.3580319489
C     -3.4691832497     0.9574341296     2.6477247588
C     -5.1729930146     0.8527726268     0.3268951786
C     -4.4998124915     2.0653274101     0.690986347
C     -3.6150276931     2.132335873     1.8038817479
C     -2.5487342224     3.1208060901     1.7811140822
C     -1.3406785727     2.9223034028     2.5902908674
C     -0.227824242     3.7318941265     2.3186862173


