98

 C     4.0434338608     -1.9669883282     1.8962367685
C     3.8537578776     -0.68741282     2.4911523597
C     4.2891404801     0.5274181329     1.8030555519
C     3.5706650766     1.7865197542     2.0325264482
C     3.6958522054     2.7984246527     1.0644392102
C     2.7757553263     -0.593914332     3.3887500137
C     1.8452721623     -1.6562138649     3.5706299596
C     1.9177833346     -2.8581545318     2.8403979397
C     3.0996323412     -3.0227768247     2.0660073562
C     2.0608048912     0.6527445567     3.5934463805
C     2.3704493236     1.8164794738     2.8902832314
C     1.2883875123     2.783499382     2.6867302101
C     1.4661822094     3.7755219482     1.6491645247
C     2.6181789798     3.7368873453     0.8334278341
C     0.3357410865     4.4003582433     1.0665423401
C     0.7252963747     0.3371682305     3.9802746222
C     -0.3497919661     1.2129482621     3.7524644092
C     -0.0590324968     2.4972977778     3.1434103511
C     -2.4989713243     2.7033017139     2.6924210701
C     -1.1880307361     3.2491551893     2.5984700864
C     -0.9699685829     4.1746857181     1.5552109914
C     -2.990813532     -1.3323242998     3.0010702166
C     -1.8082030298     -0.8197431256     3.5964832831
C     -1.6648576415     0.6193166492     3.719827147
C     -2.7334515965     1.4426755363     3.2631932505
C     0.7060229703     -4.3467675598     1.3045943499
C     0.6638228552     -3.4981405318     2.4323810815
C     -1.7927887561     -3.2540104721     1.9900851406
C     -0.6217077004     -2.9103177488     2.773877992
C     -0.6492497617     -1.6809330147     3.5646702061
C     0.5745754388     -1.0826228202     3.9168808963
C     -2.9558089064     -2.4716936302     2.1700685222
C     0.2390718467     4.5586312076     -0.3581893609
C     1.2742378044     4.1768881884     -1.2078323961
C     2.538737853     3.9876357909     -0.5734318331
C     3.5889550864     3.2532013944     -1.2141109284
C     3.3117146512     2.599956821     -2.4074683529
C     -1.1347501307     4.403975068     -0.7378029504
C     -2.7705902132     3.1212755768     -1.9419677803
C     -1.4758064949     3.6591931745     -1.9113638914
C     -0.4231559105     3.014322069     -2.6845601945
C     0.9476348707     3.4088714683     -2.4179281752
C     1.977942622     2.6377647792     -2.9688136889
C     -3.5020747001     2.9107904887     1.6281555757
C     -3.1526347479     3.6290626918     0.4556281492
C     -1.9059329457     4.2963094693     0.4438357054
C     -3.6477508197     3.1441663553     -0.7810880376
C     4.9427651832     1.3531572176     -0.4491018894
C     4.6943796755     0.6896699029     -1.7235357289
C     4.3606453327     2.5825295765     -0.1902804754
C     3.852686029     1.2818144924     -2.6482071345
C     2.8399274213     0.4879780771     -3.2901837693
C     1.1184524178     -2.8071294111     -2.8076067522
C     -0.1957189518     -3.2944429273     -2.9030345067
C     1.3630298375     -1.456847559     -3.2788379029
C     2.6739233775     -0.8828497252     -3.0259277947
C     3.6256893857     -1.5345922752     -2.1213238714
C     4.6100523146     -0.7215008073     -1.4942789573
C     -3.0671882817     1.9594167868     -2.7121451127
C     -2.0401146116     1.2043530909     -3.3330943911
C     -0.6965747928     1.7461760899     -3.3325355415
C     0.4054068117     0.8449963076     -3.62825661
C     1.7053725293     1.3436680764     -3.5218935019
C     -2.2505210436     -0.2189948712     -3.5158956319
C     -1.1054270838     -1.116726123     -3.6536469532
C     0.2438279759     -0.6022185024     -3.6418057433
C     -1.2802480152     -2.4842509072     -3.3564208199
C     4.5429449174     -2.0550217741     0.5368728629
C     4.9761857045     0.360255497     0.5720289681
C     4.9610600825     -0.9295262268     -0.1068018858
C     3.2550400746     -2.776842267     -1.4642118445
C     2.0223018881     -3.4390689549     -1.8390137596
C     3.802317034     -3.0526885717     -0.1793246499
C     3.0349915148     -3.7446269296     0.8137169595
C     1.8846965675     -4.3884209016     0.4551513519
C     1.461350484     -4.3637378481     -0.9160726763
C     -3.5329550462     -2.1065071636     -2.5249807884
C     -2.4803943115     -2.9546991459     -2.7038208314
C     -2.1061547804     -3.8929366279     -1.6739807206
C     -0.7363534887     -4.2121560041     -1.9204195501
C     0.0584086461     -4.6414942315     -0.8951033783
C     -4.203620134     1.3331655412     -2.0962426772
C     -4.3898165743     -0.0131698133     -2.2389762757
C     -3.4766602209     -0.7722453283     -3.0414368294
C     -4.3436493474     1.7768362667     1.5637591644
C     -4.8154255497     1.2464611305     0.3183178112
C     -4.4976733756     2.0018900449     -0.8413926537
C     -4.5862925967     -1.0467894764     1.2813783103
C     -4.0218050081     -0.4656083221     2.4896633103
C     -3.9066052683     0.8851384274     2.6225391613
C     -4.8204831654     -0.8139955721     -1.0975132838
C     -4.9574551304     -0.2163462787     0.184485471
C     -0.4308802818     -4.5622843683     0.4627756559
C     -2.6140141534     -3.7637240881     -0.3592949096
C     -1.6924600919     -4.0174772402     0.753997244
C     -4.2597494651     -2.1120243502     -1.2682165106
C     -3.7482390636     -2.867471441     -0.1709955901
C     -3.954252419     -2.3044736963     1.1054900471


