98

 C     -2.0081053379     3.243255453     2.3388923469
C     -2.5816726832     2.0064598363     2.7049409268
C     -2.1865371788     -0.3872773685     3.3344567757
C     -3.483999315     -0.6745781556     2.8561133547
C     -3.8417806828     -1.9689143855     2.3402182359
C     -2.933334735     -3.0024926567     2.3897900536
C     -0.6326524518     3.5031088116     2.4945093435
C     0.2404302715     2.5561647287     3.055701835
C     -0.310790014     1.2674361999     3.4536000089
C     -1.7171500285     0.9973486     3.2832503076
C     1.9860896583     0.4258517301     3.585781002
C     0.6164355642     0.1536604744     3.6440304678
C     0.1845300774     -1.2274198452     3.4768587261
C     -1.2281925743     -1.4883473307     3.4070807679
C     -1.6380871245     -2.7712637441     2.9668066857
C     3.3580345064     3.3696450519     1.1104924539
C     2.1215774277     3.6486987784     1.7343233315
C     1.6627595446     2.744526081     2.7925149887
C     2.5126878089     1.7050640774     3.1823900281
C     -4.4594192037     -2.5621268672     0.0386857564
C     -3.4850694091     -3.6313440449     0.0812717871
C     -4.6676337431     -1.7740717886     1.1600472801
C     -2.7734393784     -3.8887259651     1.2551428997
C     -1.4021276315     -4.2575178178     1.1815534725
C     -2.7827890717     -3.6285043233     -1.1640105855
C     -1.4268797835     -3.9603600323     -1.2558010218
C     -0.7249286725     -4.3714468936     -0.0440491393
C     2.7832752207     -3.6469147586     1.1301069159
C     1.4267027913     -3.9770992921     1.218185371
C     0.7239558378     -4.3731420456     0.001907316
C     1.4014004931     -4.2468167257     -1.2223557204
C     2.9427872098     -0.5800128745     3.2068439962
C     2.5235682766     -1.8835166482     2.8783879145
C     1.1294287376     -2.2251311592     3.027681664
C     0.6481827787     -3.3864543948     2.3042587084
C     -0.7123791018     -3.6405872805     2.3132745615
C     3.3446550418     -2.6028754252     1.9709304028
C     -4.0328283602     0.0863756193     -2.5341151963
C     -4.6799543527     -0.5523769926     -1.4453760101
C     -4.3935854479     -1.9350835645     -1.271225225
C     -3.3420900548     -2.5739745635     -1.9930453149
C     0.7128806799     -3.6158229022     -2.3470582988
C     -0.6471706362     -3.3591047299     -2.3351761982
C     -1.126099646     -2.1887702502     -3.0454982208
C     -2.5195644015     -1.8460959994     -2.8923693416
C     -2.9361877125     -0.5381595969     -3.2061624587
C     -4.9994096599     0.2558602336     -0.2600401471
C     -4.9072516575     -0.3601788064     1.0189036006
C     -3.7731950382     1.5038501031     -2.5335671919
C     -4.1648771619     2.2898942518     -1.4670912153
C     -4.7371131759     1.648598892     -0.289783165
C     -2.5015625677     1.7456340451     -3.1560556762
C     -3.3436562181     3.3885027967     -1.0655871686
C     -2.1066377789     3.6720935177     -1.6862511039
C     -1.6495905657     2.7789700127     -2.7545420147
C     1.6403196262     -2.7410556717     -2.990799261
C     1.2329808947     -1.4524551027     -3.4166283291
C     -0.1792176983     -1.1879546436     -3.4834527097
C     -0.6083768125     0.1957683751     -3.6351080702
C     -1.9774906748     0.4699980897     -3.5737901656
C     1.7268650482     1.0307244364     -3.2649147443
C     0.3210458489     1.3054986975     -3.4322020087
C     -0.2276363213     2.5907631683     -3.0198455881
C     0.6473051499     3.5296145302     -2.4480578258
C     -3.4684548496     3.4702184919     0.3807471186
C     -4.2314584379     2.3413198572     0.8498845927
C     -3.8110952127     1.6311071158     2.0141110753
C     -4.2388908112     0.3000211903     2.1014585303
C     -2.4447281905     3.9511970158     1.1468625664
C     -1.2942484549     4.5329516367     0.5149029403
C     0.2121211022     4.3924717071     -1.3486633385
C     -1.113850154     4.388893341     -0.8964281748
C     -0.1957583694     4.3774103046     1.4048768493
C     1.3109108125     4.5358312819     -0.4570082918
C     1.1302144395     4.3762814275     0.9526132475
C     2.4602376818     3.9589339824     -1.0954801943
C     4.2471940965     0.3151628658     -2.0910519061
C     3.8220343503     1.6460356888     -1.988758661
C     4.2437827025     2.3422908118     -0.8166300105
C     3.4830124334     3.4673606616     -0.3348300444
C     2.9351001698     -2.9813234805     -2.4164400396
C     3.8455930832     -1.9501669628     -2.355273296
C     3.4903906596     -0.649406229     -2.8565941673
C     2.1935069695     -0.3541753708     -3.331670019
C     2.5933681878     2.0315620794     -2.6753124174
C     2.0222354131     3.2653042367     -2.2953883529
C     4.4620246802     -2.5704205954     -0.0605569459
C     3.4855567472     -3.637161292     -0.1151319404
C     2.7734322127     -3.8799398379     -1.2918125314
C     4.6718105743     -1.7702260605     -1.1729894086
C     4.0406642985     0.0498561212     2.5418255929
C     4.6865312261     -0.5779049323     1.4459757971
C     4.3974166774     -1.9579983152     1.2563129878
C     4.7480517202     1.635804429     0.3151767325
C     4.1770811784     2.2649659825     1.4996196459
C     3.7838413422     1.4677637915     2.5572040869
C     4.9142317339     -0.3584833153     -1.0159874281
C     5.0075955566     0.2429704267     0.269791234


