98

 C     1.6726120861     3.6162038951     2.1500468704
C     2.6959859787     2.7042667132     2.460596233
C     3.7762316683     2.6519019457     1.5415469337
C     4.6430612822     1.5081014064     1.4722591877
C     4.3888456856     0.4256869522     2.3094985423
C     0.3112918799     3.4213830884     2.6144731315
C     -0.0699325211     2.246954626     3.2988608617
C     0.9628342049     1.2627295383     3.5957589727
C     2.3488126748     1.5216277559     3.2382770896
C     3.2296014998     0.424971974     3.1612147718
C     -0.8088150436     -0.3587322437     3.9790487099
C     0.5570938237     -0.1040812288     3.8468825273
C     -1.9093632294     3.6351745813     1.5300523659
C     -0.585758219     4.0958085142     1.7499627187
C     -4.2647385681     2.2312811495     0.733279507
C     -3.6349778339     1.8498114198     1.9388852064
C     -2.4081303856     2.5551057076     2.3447906823
C     -1.4763188703     1.8912177249     3.2365163331
C     -1.8108007701     0.6097680231     3.7230246522
C     5.1977355944     -0.0160285234     -0.3660696884
C     5.0144009418     -1.1408974995     0.5335889256
C     4.9910824327     1.2834794699     0.0921331625
C     4.5849975135     -0.9267128405     1.8255669315
C     2.6672542876     -3.8152269961     -0.5569198268
C     4.4611960201     -2.2438545458     -0.2207598744
C     3.5043858045     -3.1323185675     0.3540060437
C     3.5449025337     -1.7666845258     2.3910786899
C     1.626965582     -3.2559482527     2.0702904295
C     2.9744141857     -2.8477248771     1.6945387432
C     -0.508689166     -4.2673177627     1.284813988
C     0.8874066568     -4.114507814     1.1456948959
C     1.3908560138     -4.3204696968     -0.1557618965
C     1.4186266776     -1.2335692209     3.5193825456
C     2.7492204106     -0.9406748017     3.2380266574
C     -1.3654487976     -1.676625207     3.7226952254
C     -0.5612424466     -2.7099556292     3.1833758402
C     0.8752315929     -2.4886940975     3.0314572911
C     -1.2205322916     -3.6438499108     2.3447357358
C     2.9946865565     -0.0639682957     -3.3137293924
C     3.9169026728     0.5156930051     -2.4176385928
C     4.6951995487     -0.397957385     -1.6372444201
C     4.3466599932     -1.8125160489     -1.5800894767
C     2.5864433843     -3.4359159422     -1.9343207307
C     3.3553603832     -2.3560433093     -2.4297502313
C     2.7317312407     -1.4836651126     -3.3624317416
C     3.6318188916     1.8630058615     -1.9122102796
C     4.2613319799     2.238141597     -0.7044899562
C     1.8084685106     0.6317487916     -3.7032654645
C     1.4731331813     1.9102348141     -3.2095917998
C     2.404503971     2.5697414217     -2.3141644814
C     1.9050164993     3.6449050894     -1.4933960327
C     0.5811086849     4.1058819914     -1.7107270359
C     0.8071277698     -0.3359678753     -3.9647077682
C     -0.5589464733     -0.0829755164     -3.8311209899
C     -0.9655969324     1.2821432797     -3.5723495641
C     0.0665127911     2.26537688     -3.2699481457
C     -0.31549647     3.435706687     -2.5789976757
C     -3.2318075728     0.4404560506     -3.1425114629
C     -2.3517488949     1.5381143843     -3.2134321624
C     1.2210344825     -3.6299047774     -2.3487921593
C     0.5611200747     -2.6917769757     -3.1822007247
C     1.3646439219     -1.654912237     -3.7157244578
C     -0.8754991872     -2.4723252718     -3.0290508339
C     -1.4197300621     -1.2148516189     -3.5099472201
C     -2.750518251     -0.9244209163     -3.2269641352
C     2.4722341923     3.8773628274     -0.1703705823
C     3.6086212759     3.150252259     0.2070768256
C     -0.2346498356     4.6164893182     -0.6214994727
C     0.2296543659     4.6130357494     0.6636115588
C     1.6113591889     4.2713133598     0.8967664474
C     -1.6161219608     4.2751477842     -0.8565636302
C     -2.4767345064     3.8746574382     0.208349855
C     -3.6126366927     3.1489085066     -0.1731664125
C     -2.6997081573     2.7161503588     -2.429145187
C     -1.6769396111     3.6270182187     -2.1134948154
C     -3.7799215473     2.6579264092     -1.5104095819
C     -4.5863078031     -0.9195838721     -1.8144575437
C     -4.391056313     0.4356323617     -2.290812548
C     -4.6459855692     1.5131778475     -1.4475253936
C     -5.015555846     -1.1412801021     -0.5236918219
C     0.5096065087     -4.2597766236     -1.2923784184
C     -0.8865903156     -4.1086687174     -1.1524102557
C     -1.6267210432     -3.2454432201     -2.0721906532
C     -3.5042218152     -3.1326635529     -0.355245959
C     -2.9744416011     -2.8402248354     -1.6941650187
C     -3.5456502982     -1.7556848621     -2.3846496976
C     -4.4616253439     -2.2480722166     0.2244734923
C     -2.6666337087     -3.8201061698     0.5518496942
C     -1.3899031166     -4.3222423579     0.1478722124
C     -2.732656584     -1.5043126954     3.3703559306
C     -4.3473680661     -1.8242608696     1.5862008431
C     -3.355706299     -2.3718760759     2.4328107652
C     -2.5860716084     -3.4484489789     1.9313460182
C     -4.9938604604     1.2806046707     -0.0686790079
C     -5.1996349358     -0.0215817783     0.382245095
C     -4.6968506181     -0.4102846488     1.6512716777
C     -3.9191616457     0.4995035531     2.4367670178
C     -2.9965598122     -0.0845479006     3.3296063857


