98

 C     -3.3009952628     1.7044698609     2.6314845729
C     -3.865392842     0.4307706687     2.5121297373
C     -4.9104171332     0.3058892819     1.5416978302
C     -5.2256229598     -0.9800401353     0.9664511828
C     -4.5535393388     -2.0911854778     1.4321385897
C     -1.6264042433     -0.5547330903     3.2614971204
C     -3.0541408899     -0.7218842416     2.9015284249
C     -3.5048294441     -1.9640042523     2.4332061483
C     -1.229886443     -2.9102388017     2.6448620534
C     -2.5725081335     -3.0223863955     2.2258806219
C     -0.352702036     -3.821014877     2.0361889541
C     -1.9402904075     1.8823586596     3.1215198634
C     2.1717842492     2.5313681021     2.7031440808
C     0.8082702965     2.3346667942     2.968009511
C     0.3484463407     1.0071977911     3.3219846137
C     -1.0785287255     0.7728676501     3.3619341002
C     0.7486947612     -1.4374624688     3.13219811
C     -0.7038728315     -1.6549556998     3.1456911364
C     1.2777987488     -0.1114547341     3.2556684631
C     -4.9441607484     -1.7412033807     -1.3515143877
C     -4.2450590415     -2.9010988049     -0.8673592349
C     -5.489354931     -0.8122309218     -0.4434429623
C     -4.1283417777     -3.1149236363     0.5039978674
C     -2.9322488325     -3.7085264632     1.0154096541
C     -1.9068166155     -4.1545183416     0.1497033951
C     -0.6807981708     -4.3867868549     0.7641739802
C     -4.804233485     1.052045306     -1.8803953051
C     -4.1552020156     0.1003105228     -2.7591166672
C     -5.4043181538     0.6025718109     -0.7128197263
C     -4.212570267     -1.2538865519     -2.4955918608
C     -3.0184860166     -2.0531965029     -2.6640348226
C     0.7595096489     -0.1260770699     -3.2317733514
C     0.7161969504     -1.5477329981     -2.9683220316
C     -1.7759764015     -1.4855386171     -3.0415022415
C     -1.7274787527     -0.0542951863     -3.3220658391
C     -2.9216030983     0.6852339633     -3.2077684445
C     -0.6284752542     -3.3548926011     -1.8602994894
C     -0.5656533066     -2.1962333604     -2.7077988131
C     3.0282282493     -3.6379594935     -0.9239391255
C     1.8882264374     -3.3939548923     -1.7400016993
C     1.9342952001     -2.2469791945     -2.636024395
C     3.1664333079     -1.5616163111     -2.7849817059
C     -1.8976922279     -3.714658459     -1.2421548822
C     -3.0716228493     -3.1200168373     -1.716804932
C     0.6016295094     -3.8780503978     -1.2836383985
C     0.5278937284     -4.4623577728     0.0018653534
C     -2.7251586824     3.8983137879     -0.6782036877
C     -3.8642297248     3.0559745607     -0.7090978128
C     -4.01129019     2.2614148445     -1.8756245671
C     -2.8925815345     2.0458536341     -2.7474843438
C     -0.4613604403     0.6519712304     -3.2531690817
C     -0.4314077113     2.0485862728     -2.9120074514
C     -1.6708885251     2.721250182     -2.582849419
C     -1.6781747321     3.7711156343     -1.630762965
C     3.2049088847     -0.164762226     -3.0603468664
C     2.0161573836     0.5839385682     -3.1653310283
C     0.8164337321     2.6583938036     -2.4873952104
C     -4.3787576972     2.5164854067     0.5567198636
C     -5.1066897686     1.3067158608     0.5375204882
C     -2.0726380198     4.2635397633     0.5753490929
C     -2.4738466157     3.6454059452     1.7336328208
C     -3.6140247954     2.7618837432     1.7360323077
C     -0.6681971255     4.4719228737     0.3425628772
C     -1.4641246251     3.112730703     2.6336034262
C     -0.0880378923     3.3287816766     2.4354479754
C     0.3264150636     4.1154812401     1.2961451514
C     3.1597604462     3.3917993768     -1.0405085599
C     1.9223504557     3.8942404851     -0.6091523362
C     1.6684348753     4.0147321049     0.8170286174
C     2.6191645048     3.4404829966     1.6957003444
C     2.0428219145     1.9776591066     -2.7444710446
C     0.797742381     3.7073035959     -1.4918275852
C     -0.4387132755     4.1845172712     -1.0250507703
C     3.22991989     2.4960493353     -2.1497040021
C     5.0143063331     1.991683223     -0.7076407615
C     4.2153821514     3.037189908     -0.111985052
C     3.9052822208     2.9957048805     1.2428568486
C     5.5073947544     0.9475159132     0.0806791703
C     5.0730696505     -0.661593885     -1.7324105764
C     4.4121346498     0.3878271648     -2.4684090448
C     4.413306612     1.6839694126     -1.9902277564
C     5.5698702139     -0.3899673054     -0.4489955914
C     4.6390025633     -2.5149738479     0.3574488458
C     4.2169566649     -2.8377211798     -1.0005921395
C     4.3347395345     -1.8800054883     -1.9858713929
C     5.2297850612     -1.3045828797     0.6307657239
C     1.601486979     -4.278577863     0.9250446863
C     3.6409596421     -3.0341389109     1.250078237
C     2.8328658921     -3.925789939     0.4701483163
C     4.270642783     1.8284287564     2.0184377217
C     3.1280699134     1.4719957559     2.8250696042
C     2.7064720654     0.138752357     2.9967989837
C     5.0591514823     0.8435768741     1.4640741863
C     4.7647648884     -0.5320109732     1.7589972697
C     3.5840530536     -0.9051498632     2.4761606499
C     3.0301277634     -2.220322885     2.2498935499
C     1.6465890264     -2.5012222314     2.6443223495
C     1.0597831344     -3.661684359     2.1093648902


