98

 C     -3.2435367383     1.664315679     2.7187244636
C     -2.0259759171     2.478692368     2.8594264835
C     -4.159916356     1.9904504274     1.6910151822
C     -1.8890478159     3.6040738947     2.0349807255
C     -0.592827574     4.1148306144     1.6625373521
C     0.6162596518     3.5258256855     2.0828234634
C     0.5315651716     2.3752682417     2.9758710589
C     -0.7882528944     1.903823114     3.3828135735
C     -0.8848219403     0.6062395185     3.9193161627
C     2.9412437852     1.8412139091     2.4346627257
C     1.6882847186     1.5141379147     3.1095098345
C     1.5064934406     0.1517351109     3.5716786272
C     0.2272470537     -0.255605515     3.9589979015
C     3.9432696035     0.8408900794     2.3664381566
C     2.9924109264     2.9304585299     1.4720308603
C     1.8084915894     3.748183631     1.2672707169
C     3.9532725089     2.858659662     0.4236580319
C     1.6445597395     4.3748662158     0.0047705104
C     -4.8707746129     0.963504301     0.9587495713
C     -2.078578087     -0.2060074965     3.7861461938
C     -3.2427553462     0.2805308199     3.175935634
C     -4.0697409285     -0.6975105848     2.5376606813
C     -4.8480251819     -0.3427109513     1.378332969
C     -0.2508977361     -1.6127669972     3.7487489633
C     -1.6693301654     -1.5706965365     3.656285121
C     -2.3720122443     -2.4893543174     2.8412543658
C     -3.6364615396     -2.0513293243     2.3715856823
C     0.5255381687     -2.5569847278     3.0744388061
C     -0.148971391     -3.4866937047     2.1709751309
C     3.6902118605     -0.5280627436     2.7582847943
C     2.4402889632     -0.911800115     3.2547340596
C     1.9391245331     -2.2557220906     2.9532478705
C     2.6935232561     -3.066403758     2.0913219588
C     -3.4367638911     -3.4437805763     0.3789327281
C     -4.787994277     -1.4222556215     0.4184981693
C     -4.1397747045     -2.5101210885     1.0974681287
C     0.6239915098     -4.0420123     1.0835535773
C     -1.5917576785     -3.4567925725     2.0716722003
C     -2.1770992321     -3.9728230532     0.8858383971
C     2.0206381138     -3.856890317     1.0899475783
C     -3.3554142871     -3.32753638     -1.0457490509
C     -3.8223078652     -2.176948076     -1.725025592
C     -4.5792786469     -1.1807168059     -0.9610451682
C     -4.6007873722     0.2213178104     -1.4020067619
C     -4.8086814521     1.2632691654     -0.452332401
C     -3.8540442633     0.5830571963     -2.5510615336
C     -2.12556713     -3.9946460107     -1.4288958166
C     -1.4369932825     -3.612722022     -2.5504779408
C     -1.898842798     -2.4748883444     -3.3049042405
C     -3.060206459     -1.7551874529     -2.9097317386
C     -3.0743229567     -0.3969065156     -3.2761232835
C     0.0132819268     -4.3411435976     -0.1923797805
C     -1.3939970818     -4.3611909457     -0.2343834204
C     0.0016417501     -3.6369126327     -2.552246063
C     0.7407518291     -4.0328053066     -1.4157800551
C     -3.1976669576     1.8411046038     -2.6640699626
C     -3.2978278504     2.8305767306     -1.6612820915
C     -4.1846179722     2.5484346376     -0.5911009615
C     -3.8672658169     3.0167764362     0.7395664994
C     -2.7885885812     3.8400446497     0.9353253019
C     -0.9419691152     3.5230137437     -2.271818675
C     -2.1571491441     3.7143088084     -1.4647584915
C     -2.014553908     4.3109007775     -0.1892194444
C     0.2388001203     4.1207507354     -1.8375293889
C     0.3523457315     4.6784423055     -0.5097241633
C     -0.7300961695     4.6527713027     0.3276276552
C     -0.7273817912     -1.8095719069     -3.7822996818
C     -0.6686022406     -0.405666314     -3.9253903995
C     -1.9096569746     0.2568164936     -3.7840544372
C     -1.9622503086     1.6248498361     -3.3867296717
C     0.5091147595     1.7143742459     -3.372137476
C     -0.7978456478     2.3587149885     -3.1502974623
C     0.4328035383     -2.5358134353     -3.3508411017
C     1.6660147393     -1.8968294226     -3.1532007667
C     1.7772973031     -0.4654476898     -3.3956279602
C     0.5702667591     0.3061943741     -3.6922381101
C     4.0141193856     -0.5740572792     -2.3688888187
C     2.9715197967     0.2070754118     -2.9580589687
C     2.9466757194     1.6377157529     -2.7024568865
C     1.7005693244     2.3761641621     -2.8907774837
C     1.5352399729     3.5971234702     -2.1935346058
C     3.9966578666     -3.0512842195     0.1672121196
C     2.779378371     -3.7579000813     -0.1213643061
C     2.1100749583     -3.6056160792     -1.3609109441
C     4.5464828872     -2.2069321753     -0.782974464
C     3.8105985671     -1.9424954116     -2.001277341
C     2.6024971199     -2.5933254313     -2.2918141407
C     5.1740393919     -0.5886375005     0.9562638625
C     4.4731093796     -1.4027982652     1.9209953422
C     3.9496485842     -2.632840983     1.5526229678
C     5.204403407     -0.9838426151     -0.383439303
C     4.8486073102     1.3297457999     -1.1033996013
C     4.8487890017     1.7507994847     0.2919118367
C     4.9054330333     0.7967981175     1.2905796028
C     4.9461415606     -0.0066095506     -1.4217031281
C     2.4213069184     3.933251598     -1.122277096
C     3.9247958675     2.168610212     -1.8163369818
C     3.56749085     3.2235142748     -0.9158264381


