98

 C     0.7131640432     -4.3864990397     0.7819584776
C     1.2894328109     -3.6062979178     1.8151389661
C     2.6583706609     -3.1435438987     1.6258393396
C     3.1501526956     -2.0046581296     2.3842345682
C     4.2975376256     -1.312726545     1.9025106425
C     4.5355864736     0.0664291246     2.2067655147
C     2.2227182343     -1.2769079505     3.2384138853
C     2.5334864881     0.0544690033     3.5892121034
C     3.6845033016     0.7333723048     3.0717334223
C     -0.1442148914     -0.7018888238     3.7702730842
C     -1.4927598966     -1.0388281373     3.7681386994
C     -1.0513562675     -3.1692456321     2.6325312559
C     0.3772959179     -2.9025801552     2.7176324649
C     0.8329330037     -1.6922937087     3.3550991165
C     -1.9475279393     -2.2888338219     3.2762662076
C     -0.7021534927     -4.4222560708     0.5659494832
C     -2.9011053502     -3.6227025084     1.0068947903
C     -1.5980308709     -3.9201172235     1.506136087
C     4.5951551407     2.029499718     0.7266488693
C     3.7923450729     2.7550904737     1.6898925546
C     4.9962958999     0.7313497179     0.9940529434
C     3.324835363     2.1177341405     2.8251448008
C     0.6987080209     4.4165696545     0.5320541109
C     2.8990019178     3.620176745     0.9720121381
C     1.5974572816     3.9211876991     1.4730854296
C     0.1505969882     0.7193424284     3.7647210283
C     1.4991303133     1.0562385389     3.7560418061
C     1.9523794728     2.3026664112     3.2538189644
C     -0.3741503224     2.9124164381     2.6978982354
C     1.0542297945     3.1784429738     2.6065180021
C     -0.8278267891     1.7067437472     3.3454348553
C     4.5176371597     0.0619441801     -1.3528530387
C     3.9811765137     1.4061776467     -1.605930752
C     5.0265960165     -0.2281077532     -0.0599793887
C     4.1030833138     2.3611241972     -0.5798751444
C     3.1117824854     3.4041040204     -0.4226923878
C     0.9472810374     4.2948586569     -0.881656371
C     2.0721114607     3.5923828949     -1.3607092488
C     1.9207464906     2.6876719975     -2.4784974019
C     2.920173779     1.6110042177     -2.610533787
C     2.6029779396     0.5238220603     -3.4256981481
C     4.7713328614     -1.5231802211     0.5534028084
C     3.1175785916     -0.8084921988     -3.1801728593
C     4.0315968007     -1.0672716045     -2.1426630922
C     3.9669214187     -2.3719107854     -1.5815412441
C     4.2748614174     -2.5599524272     -0.1789109851
C     0.9818183252     -0.9953144232     -4.0585833745
C     2.0938159186     -1.7335189439     -3.5347361164
C     1.8851010668     -2.9408470664     -2.8343869062
C     2.9134776714     -3.2818119025     -1.9115150738
C     -1.33352674     -0.4334405835     -4.0239862303
C     -0.3485889566     -1.4336429306     -3.8859870961
C     0.3316147009     1.3960164846     -3.8971891644
C     1.316135089     0.3948395064     -4.0310081752
C     -2.9244437187     3.2583842618     -1.9261138881
C     -1.8988789141     2.9107709578     -2.8496359099
C     -2.1097090323     1.6984430174     -3.5406536195
C     -0.9993102432     0.9564654316     -4.0625602072
C     0.624679423     2.584262015     -3.1136353401
C     -0.3057235281     4.236854659     -1.5453686627
C     -0.5168085933     3.3727066222     -2.6341079665
C     1.3210827457     -4.4727636233     -0.5134511877
C     3.3135208273     -3.4567833079     0.4024108936
C     2.5898055479     -4.0065217798     -0.7026479319
C     0.5036974602     -3.4012043143     -2.611328949
C     0.2959328589     -4.257500158     -1.5157662341
C     -0.6392596336     -2.6162220861     -3.0930221597
C     -2.6185168096     -0.5580481276     -3.4138362692
C     -2.9332171158     -1.6393310347     -2.5899159913
C     -1.9333826697     -2.7150397072     -2.4531995832
C     -2.081336832     -3.6116824118     -1.3284790663
C     -0.9550427963     -4.3107104173     -0.8478322229
C     -3.118145009     -3.4166555526     -0.3886691694
C     -4.526849172     -0.0812532043     -1.338533149
C     -3.991153635     -1.4272708679     -1.5835753531
C     -4.1099293424     -2.374818718     -0.5503152015
C     -5.0318596093     0.218094524     -0.0462284415
C     -4.2805188931     2.5490086031     -0.184218555
C     -3.9768666326     2.3508898722     -1.586394212
C     -4.0432305968     1.0422480084     -2.1379222043
C     -3.132381631     0.7760029031     -3.1763337733
C     -4.7747523515     1.5175431122     0.5570469072
C     -1.3278124399     4.4593342738     -0.5415044386
C     -3.3174335551     3.4499936439     0.3877088726
C     -2.5971011585     3.9917670295     -0.7234768961
C     -3.6802132374     -0.7208648915     3.0882026954
C     -2.5276346051     -0.0382762974     3.5972821078
C     -2.217956211     1.2905450512     3.2359769071
C     -4.5339425658     -0.0601478673     2.2210738476
C     -4.2968367485     1.3167815744     1.9061852565
C     -3.1480015639     2.0121446442     2.3794240064
C     -2.6585488295     3.145540998     1.6113533627
C     -1.2890459154     3.6096293315     1.7931491166
C     -0.7159397792     4.3823774211     0.7526320528
C     -4.5980045721     -2.0338058231     0.7552849986
C     -3.792258065     -2.752462982     1.7212684297
C     -3.3212877732     -2.1069670124     2.850472088
C     -4.9983401465     -0.7337623492     1.0145763714


