98

 C     4.1836737215     2.4717119618     -0.7358298573
C     4.7581727039     1.1759981316     -0.6661126785
C     4.9287490749     0.6526016318     0.6436884078
C     3.5917911527     3.0939591664     0.4060395387
C     3.5586701592     2.4685332628     1.6709947369
C     4.3489486714     1.2916429386     1.7837945419
C     4.5196547311     0.2436979562     -1.7753674526
C     4.5199956644     -1.148087663     -1.50860475
C     3.400965825     2.8876326948     -1.880000844
C     3.1239615618     1.9854322177     -2.8867824399
C     3.6812807789     0.6609108376     -2.8454486337
C     2.3684440895     3.7806936545     -1.4481343373
C     1.0900291869     3.7934150734     -2.0779041415
C     0.0587033932     4.343968376     -1.3192641646
C     2.1187934761     1.6441667731     3.4768583084
C     2.3640708565     2.6381324594     2.5172554854
C     1.2275334402     3.4352046237     2.0656441754
C     1.3514829306     4.1259382572     0.7915718085
C     2.4868946111     3.9112894703     -0.0284832247
C     0.1856200852     4.5364367879     0.1004717027
C     2.7138035745     -0.2217245306     -3.4245775327
C     2.5919704603     -1.5633735841     -3.0315984266
C     3.594412727     -2.0341174634     -2.1355908126
C     1.2874752985     -2.2053142824     -3.0923500682
C     1.1111981771     -3.4284291367     -2.3258479384
C     -0.187232853     -3.9240509103     -2.1791277232
C     1.5467799374     0.5460445923     -3.7858434209
C     -0.8577906644     0.9136559091     -3.6009937522
C     0.2606811939     -0.0016446956     -3.7713842524
C     0.1291040941     -1.4422580897     -3.515832137
C     -3.2137897452     1.1937635162     -2.9451461662
C     -2.184935068     0.3503007039     -3.4341366364
C     -2.36043745     -1.0856473224     -3.3036727556
C     -1.1978139988     -1.971865381     -3.3235843984
C     -1.3154668424     -3.2492343563     -2.7205168904
C     0.758246444     2.7677030516     -3.0799301016
C     1.7958988792     1.9156882415     -3.4688479739
C     -1.3133174635     4.0639819826     -1.6152536991
C     -1.6594668824     3.0672389922     -2.5846935912
C     -0.605137134     2.295592448     -3.2315038932
C     -2.9355973704     2.5059328913     -2.4585249573
C     2.091891173     -3.8099562328     -1.2997975974
C     3.3021299504     -3.107972289     -1.2207874148
C     -0.6190881551     -4.5745265509     -0.9454896979
C     0.2516630982     -4.6952415007     0.1063380369
C     1.6375724538     -4.3820653022     -0.077430002
C     -1.9840904496     -4.2408881969     -0.6987590401
C     -0.1593302542     -4.2802492135     1.4190993025
C     -1.4434469657     -3.7606361031     1.6579885592
C     -2.4331890513     -3.8241085442     0.5776034446
C     -3.5260474289     -2.7423311878     -1.8543238616
C     -2.4543126427     -3.5803588806     -1.8950948286
C     -4.198185203     -2.4885807573     -0.5951411661
C     -3.6057306903     -2.957531656     0.6161184928
C     -3.792671486     -2.1332177133     1.7433172809
C     -3.5415586765     -1.552949413     -2.6580563187
C     2.1426846279     -3.9199683922     1.1751875527
C     3.2784030204     -3.0915310634     1.2536011061
C     3.9528949519     -2.8405590254     0.0248948713
C     4.7390617168     -1.6535463772     -0.1653706185
C     4.9026964344     -0.7820452622     0.8850014216
C     2.1739587354     -1.9187806577     3.1859769676
C     3.3489532513     -2.1159844635     2.3296702348
C     4.2494587423     -1.0369929789     2.154585923
C     2.0243341179     -0.6699376584     3.8105197611
C     2.905547106     0.4288692403     3.5418702776
C     3.9896002959     0.2502923469     2.7245505507
C     1.0117797298     -3.7645218729     2.0706523154
C     -2.7496375025     -2.0172972605     2.7701942483
C     -1.5445460845     -2.7483923669     2.6962562484
C     -0.3630171232     -2.1710565341     3.3136803165
C     0.9542641701     -2.7015355973     2.9891016049
C     -0.4598213877     -0.8283730974     3.8617453859
C     0.7294634514     -0.1157828803     4.0771530881
C     -3.9206379799     -0.0398829838     2.6955812117
C     -2.8291195961     -0.7258466867     3.3391347136
C     -1.667318632     -0.0419890069     3.7697544157
C     -3.8707063897     1.3126717389     2.5267105857
C     -2.7171251446     2.0488417653     2.9941060985
C     -1.6030675503     1.3979902597     3.5880203375
C     -4.8056805675     -1.2041045855     -0.6923637589
C     -4.9281504063     -0.3423135133     0.4301688375
C     -4.4844140017     -0.8952494342     1.6667404253
C     -4.5886882332     1.6068212299     -1.0789860897
C     -4.3080885911     0.6871873334     -2.1657064769
C     -4.4494071728     -0.6628190628     -2.0000224257
C     -4.3679714917     1.927564016     1.3091548556
C     -4.8467536326     1.1168043533     0.2309587824
C     -2.0591233015     4.2116317822     -0.4201440654
C     -3.5789467215     3.0826433991     1.0923075083
C     -3.2806088149     3.526199732     -0.2210270137
C     -3.7836403103     2.7596946813     -1.302156882
C     0.7960516002     1.3064700899     3.8812745096
C     -0.3222691403     2.0546456646     3.4762529534
C     -0.1011015713     3.1850493069     2.5902090995
C     -2.5491266214     3.1591282197     2.1446591005
C     -1.2698316817     3.7286251403     1.9003244022
C     -1.1034794014     4.388842815     0.6623433758


