98

 C     -1.4046377962     -3.4818465368     2.4670443708
C     -1.2899344422     -2.2981851421     3.2468913238
C     -2.467912373     -1.5277628475     3.3554594528
C     -2.4027379662     -0.1303909703     3.6431335557
C     -1.1559650675     0.5046635571     3.8634963058
C     -1.1681365768     1.9015261513     3.6735978678
C     -0.2478232812     -4.08641438     1.8807103268
C     1.3069596906     0.4845175173     3.5248583333
C     2.450985546     -1.6416708644     2.8465287586
C     1.0247561585     -3.5622552341     2.0753756778
C     1.183446472     -2.3413459852     2.8960414229
C     0.025465964     -1.6749736248     3.4170988051
C     0.0875998369     -0.2427234905     3.7354791605
C     3.5095779704     -2.188162446     2.0615420329
C     3.2433209669     -3.2013894988     1.0766701056
C     2.0225592208     -3.8871086465     1.0548950528
C     1.6126294115     -4.3832829726     -0.2067795403
C     -3.489079119     0.5189888897     2.987999477
C     -2.2735415453     2.5739216135     3.0347576345
C     -3.3927575983     1.8606462803     2.5475239921
C     -1.7175147773     3.6727840151     2.2942585762
C     -2.2799226899     4.0387511842     1.0863190535
C     -0.2981130242     3.6823992998     2.4525622941
C     -1.4130903501     4.3536792132     -0.0212274233
C     -0.0104813156     4.3275611533     0.0987094721
C     0.5668899315     4.0433621825     1.4069481632
C     3.5130177225     1.9200162556     2.3687891747
C     2.2985276227     2.5960013604     2.5133698651
C     1.9352754364     3.6076770646     1.52405432
C     2.749240982     3.7480084013     0.3838605744
C     2.513752824     -0.2280821698     3.1766350681
C     1.2582500443     1.9282163107     3.2751174623
C     0.0339577089     2.5892544464     3.3428294773
C     3.6365758066     0.5292658014     2.7416745084
C     -3.4475382865     3.3512112957     0.5932486521
C     -4.0010611448     2.2283786384     1.2658956924
C     -4.6549683942     1.1913236709     0.464276247
C     -3.3599675194     3.3990799047     -0.838930876
C     -3.9720072667     2.425171484     -1.5840428093
C     -4.6815995207     1.3646569781     -0.9400274891
C     -1.2214708887     1.4709949401     -3.8469609716
C     -3.3087816081     1.917467686     -2.775946162
C     -2.0099998977     2.384375167     -3.1311703406
C     -2.0569566575     3.9274453002     -1.2243873951
C     2.1389215199     3.8328099872     -0.924177356
C     0.7491819124     4.0073903888     -1.0896820983
C     0.117204498     3.4357109348     -2.2565462645
C     -1.3355556194     3.3895778352     -2.3095499736
C     0.8982639042     2.5180961256     -3.0713473969
C     0.2149659665     1.5454518942     -3.8274561883
C     -4.7523926187     -0.19093158     0.9706468924
C     -4.2099138467     -0.4823699597     2.2407260629
C     -4.5811509768     0.2329037251     -1.8445570552
C     -4.6346704233     -1.0443255855     -1.3792218353
C     -4.8105266858     -1.2823938951     0.0335085074
C     -3.6881980441     0.5616030789     -2.9403119002
C     -2.7847734229     -0.4147664483     -3.4549556302
C     -1.5962733996     0.0997018583     -4.002546186
C     -4.2047838734     -2.5342393577     0.303855058
C     -3.5989378342     -2.7936494436     1.5597413434
C     -3.6160610142     -1.7582512317     2.5283718841
C     -2.5081766937     -3.6870831811     1.5879922031
C     -3.57441563     -3.0253015277     -0.9270268689
C     -2.4119764656     -3.8347377219     -0.9058024252
C     -1.9999648768     -4.3125009721     0.3700240727
C     0.2413213065     -4.6862658088     -0.4555997998
C     -0.6529493557     -4.6601418986     0.603595409
C     -2.7670079105     -1.7650032874     -2.9117304517
C     -3.7772340461     -2.0803309986     -1.94261663
C     -0.3942197095     -0.6741604264     -4.0317849536
C     -0.3190968065     -1.9550377442     -3.4758377448
C     -1.5458389076     -2.5332490662     -2.9031541028
C     -1.418483082     -3.6326570438     -1.9576004513
C     -0.1274381609     -4.1510633655     -1.7298580616
C     0.727336014     0.228735688     -4.0007959105
C     1.9907051077     -0.1502090193     -3.5165709407
C     2.1769970543     -1.5218008691     -3.1051066306
C     1.0129769333     -2.4144393125     -3.093975747
C     1.0714162742     -3.5671729008     -2.30155038
C     4.2794177207     -0.8186752916     -2.0241692951
C     3.3370391954     -1.844457739     -2.3014727814
C     4.1095931452     2.6203940967     -1.1295245873
C     2.9266327759     3.0546896575     -1.8275211819
C     2.2926906596     2.2431113522     -2.7915059067
C     4.6867087573     1.4055092594     -1.4359181293
C     4.0454793124     0.5402987584     -2.4029952031
C     2.8549895112     0.918223252     -3.058308016
C     5.0878019743     0.9493633576     0.9434567498
C     4.4040861659     2.1810621757     1.2653670688
C     3.9832949055     3.0350668435     0.2537732609
C     5.2463616728     0.5748845635     -0.3902049252
C     4.8171607762     -1.7730330796     0.1771772934
C     4.5734116069     -1.3778472944     1.5553189155
C     4.6554009879     -0.0430737988     1.9138023952
C     5.0432862395     -0.805625523     -0.7869885988
C     2.1593264652     -3.8017944977     -1.4063580427
C     3.2860806616     -2.9665715966     -1.3752683285
C     3.9574961699     -2.8758443194     -0.1213783875


