98

 C     -5.0677645103     0.2567313145     0.9784290521
C     -5.1636068851     -1.0073570222     0.3376534138
C     -3.6908821876     2.5770518621     2.0024911965
C     -3.7255532072     1.4268607325     2.7414395158
C     -4.4659856798     0.27541587     2.2820585423
C     -2.4990964638     3.3868288285     2.0187131539
C     -3.8145942168     -0.8633875551     2.8151051412
C     -3.8317370132     -2.1084365576     2.1326468631
C     -4.5275595568     -2.1776422994     0.8934394355
C     -2.7194062864     -2.959660504     2.3120875224
C     -2.6112082434     -0.4185594586     3.5183150727
C     -1.4443205571     -1.2016344052     3.5595821889
C     -1.5731854536     -2.5406019682     3.0889345702
C     1.0226721888     -1.366123232     3.2652716195
C     0.8479861824     -2.699107395     2.7364707111
C     -0.4498668625     -3.2217442721     2.6002812609
C     -0.0948017095     4.339264387     0.9841096504
C     -0.0363717674     3.4760327247     2.1053567079
C     -1.2869086738     2.9459320037     2.6178345598
C     -1.2871379612     1.6616191129     3.3090286183
C     -2.5336629737     0.990239225     3.43515651
C     1.2235078043     2.8003744902     2.3845054921
C     1.2080659551     1.5142413568     3.0434455983
C     -0.0657962186     0.8918759718     3.4125480854
C     -0.1434104372     -0.5496805436     3.5443707812
C     2.407668615     0.705846618     3.0541244863
C     2.3131432656     -0.7455516347     3.1446371648
C     3.3927257358     -1.5391034067     2.6790757415
C     -2.2483837416     -3.8038231233     1.2574429875
C     -2.8095923509     -3.7248953172     -0.0463606767
C     -4.0301109887     -3.0083070495     -0.1783193425
C     -4.3830351272     -2.3624366563     -1.4127896247
C     -3.5218418017     -2.420339676     -2.4946137736
C     -0.8516163281     -3.9992992938     1.4458577663
C     0.0412550881     -4.1541833154     0.3788687929
C     -0.4693058712     -3.9839703417     -0.9686788907
C     -1.883512446     -3.7804555683     -1.1802834643
C     -2.271621071     -3.1274641868     -2.3782718147
C     1.8338537962     -3.5818972858     -1.694762424
C     0.466440556     -3.4951714184     -1.9529543292
C     3.1569222726     -2.7917951155     2.010758243
C     1.860185425     -3.3112536239     1.9138393147
C     1.4513825792     -3.9852637817     0.6837406207
C     2.34450329     -3.9480355277     -0.3946278436
C     -4.9011938832     -0.0032624407     -1.8896508764
C     -3.954885673     -0.0454114215     -2.9854651887
C     -5.088575224     -1.1245403867     -1.0981455323
C     -3.2835369069     -1.2205053857     -3.2797424953
C     -1.8973194217     -1.1739621954     -3.6163794003
C     0.3542579297     2.3477142913     -2.8892471878
C     1.0653849807     1.1071028219     -3.2464613046
C     -1.1408526434     0.0204403856     -3.6104309764
C     -1.8392569387     1.2551463333     -3.2876025576
C     -3.2316942894     1.190693532     -3.0023895615
C     0.9177313075     -1.3843237571     -3.2503084677
C     0.3027011541     -0.0770719272     -3.4846533958
C     4.4150988518     -0.4129667174     -2.2425667089
C     3.14882112     -0.3148316289     -2.8983719268
C     2.5101245784     0.9907839242     -3.0225298555
C     3.2100062436     2.0981622777     -2.4869935159
C     0.0602003558     -2.5003759974     -2.9159161622
C     -1.3078246957     -2.3919790241     -3.1405217047
C     2.315346369     -1.4981724527     -2.9575560803
C     2.7598958523     -2.6857768039     -2.2971188565
C     -4.2926423262     2.6086377188     0.6819887047
C     -4.9273762     1.45566976     0.1401853741
C     -4.8019797013     1.2948828602     -1.2680952924
C     -3.8371781144     2.0530649805     -2.0151346103
C     -3.1128735909     3.1089355198     -1.4494954093
C     -3.4732845196     3.4621327623     -0.1149316904
C     -1.2980424682     4.4788045708     0.2253576355
C     -2.4802629903     4.0525698211     0.7506225211
C     -1.0831927902     2.3905021692     -2.8138708451
C     -1.761576614     3.3684964613     -1.9464717068
C     2.4787839106     3.2176125677     -1.961319856
C     1.1015023463     3.3709444898     -2.1937903266
C     0.438441843     4.2119642525     -1.2739296806
C     -0.9696802499     4.2222077789     -1.1689906762
C     4.2712178127     2.8222404577     -0.5551911603
C     3.0845667909     3.6004398525     -0.7270506859
C     2.2506437287     3.926286501     0.3815557908
C     0.9875138729     4.3840551134     0.045383549
C     4.568805331     2.334328767     0.7073810391
C     5.5178826325     0.2817858406     -0.2822499819
C     4.994420776     0.7111896582     -1.5723339507
C     4.4072637309     1.954821928     -1.7092353314
C     5.2314026203     1.0567156255     0.8492342207
C     3.9626956423     -2.696663274     -1.4974701368
C     5.3852295503     -1.151603142     -0.2204095406
C     4.7724447088     -1.5864258741     -1.4704368423
C     4.6842402938     0.4254801243     2.0275430676
C     4.5687741564     -0.9481264595     2.087711189
C     4.9901281756     -1.7689394151     0.9690245088
C     4.1110834297     -2.916057208     0.9372288887
C     3.673422428     -3.4266236647     -0.2791082798
C     2.4046230068     3.2024807998     1.6382584531
C     3.5890226613     2.4640020727     1.7849945165
C     3.6085348865     1.2571601943     2.5340901031


