98

 C     -1.880663363     2.7909334389     2.9379274931
C     -2.0102955645     1.4372527308     3.3158878467
C     -3.2152821996     0.7210699596     2.9027965639
C     -3.2158661712     -0.7253889194     2.8966537773
C     -4.1484344479     -1.3860090766     2.049057955
C     -3.8442836688     -2.6644001091     1.475670222
C     -2.0114609656     -1.4460248679     3.3036476473
C     -1.8829270775     -2.7965561878     2.9142177858
C     -2.7665781384     -3.3685709498     1.924505832
C     0.4726632825     -1.4471745943     3.6031982405
C     1.6638147764     -0.7129986716     3.6897184599
C     0.4738257982     1.4338429694     3.6154313932
C     -0.7908307665     0.7186026314     3.6599726307
C     -0.7914155316     -0.7313121064     3.6538177273
C     1.6643841361     0.6979950774     3.6957103665
C     0.5972434472     2.7716330313     3.057604837
C     1.8163861257     3.1732132852     2.3325297358
C     -0.6020310613     3.4312510564     2.7742121221
C     1.6835243982     4.0947021311     1.2770754383
C     -3.1689477597     -2.6072453498     -2.1220109498
C     -3.2641358519     -3.2462778721     -0.8669797612
C     -4.1651341057     -2.6509726281     0.0631249008
C     -0.7088836196     -4.3373411417     1.625213417
C     -1.9842167813     -4.1756160314     1.0117424145
C     -2.1172399402     -4.0128532437     -0.3889682156
C     0.3992374012     -4.5866274005     0.8506863953
C     0.289414329     -4.4948551587     -0.5778344253
C     -0.8962405634     -4.0882105324     -1.2017738135
C     0.5949981605     -2.7802793409     3.0340332914
C     -0.6048087145     -3.4364959695     2.7450635417
C     1.6802130431     -4.0890609769     1.2423306382
C     1.8138203522     -3.176678247     2.3055714673
C     -4.8263872634     -1.4144283325     -0.205988252
C     -3.8678267018     -1.4017919131     -2.4107195967
C     -4.6479828648     -0.720111616     -1.4313086879
C     -3.0552085409     -0.6600983303     -3.3497774924
C     -3.0546580492     0.7086913581     -3.3439670479
C     -1.825886201     -1.3709964235     -3.5827557219
C     1.8659186204     -0.709135403     -3.5258015783
C     3.0331700905     -1.3748061133     -3.0958318576
C     0.6063439674     -1.440375162     -3.4861025257
C     -0.5953247699     -0.7080490543     -3.7723735551
C     -0.5947323787     0.7582611049     -3.7661524628
C     -1.8247623348     1.4205592997     -3.5709094867
C     -0.7669189365     -3.2533963178     -2.4053456999
C     -1.9088935675     -2.5943363471     -2.8565562422
C     1.5829070101     -4.098867177     -1.0715770039
C     1.7108843494     -3.2734874631     -2.2155380017
C     0.5218377427     -2.7323982004     -2.8365306383
C     2.9371413714     -2.6068070754     -2.360748046
C     -4.8932098227     -0.6782834578     1.0478930388
C     -3.8666823417     1.4430357542     -2.3986436147
C     -4.6473877716     0.7536939649     -1.425053605
C     -4.8252360241     1.4377218028     -0.1938747783
C     -4.8926585096     0.6910046057     1.0537082934
C     -3.1668303161     2.6454354884     -2.0997129368
C     -3.2615088461     3.273859802     -0.8393003098
C     -4.1629885051     2.6713979276     0.0857220317
C     -3.8421259856     2.6725773432     1.4983277851
C     -2.7638506004     3.3720401683     1.953115517
C     -0.8929312868     4.1166912385     -1.1669405149
C     -2.1139940382     4.0354247264     -0.3548041336
C     -1.9808356455     4.1861784058     1.0472348448
C     0.2930564416     4.5170622947     -0.5395775326
C     0.4029537698     4.5966036812     0.889663546
C     -0.7053716746     4.341659534     1.6620490772
C     -1.9067866763     2.6377526057     -2.8343442981
C     0.5240689741     2.7736850402     -2.8131619273
C     -0.7642765899     3.2920330633     -2.3775602728
C     2.9392760557     2.6420895762     -2.3384728832
C     1.7135558272     3.3085069666     -2.1875967496
C     1.5862368764     4.1242393554     -1.0366647071
C     1.866513462     0.7552603448     -3.5195931856
C     0.6075329138     1.4871596404     -3.4736842507
C     3.0343096156     1.4163008277     -3.0839909245
C     -4.1473120243     1.3896100834     2.0608434954
C     4.7099555221     1.4268864847     -1.4559061053
C     3.9219497772     2.6134476645     -1.2864319762
C     3.5880847491     3.0968213026     0.0048356469
C     2.4677986243     3.9486657149     0.0698412794
C     5.1478580776     0.7346631136     -0.3362281043
C     4.7088052673     -1.40058434     -1.4679045848
C     4.185514992     -0.6710623264     -2.6058093682
C     4.1860810175     0.7074800491     -2.5999647497
C     5.1472675256     -0.7182483853     -0.3423933776
C     2.464607684     -3.9334119268     0.0363797834
C     3.585580024     -3.0819511381     -0.0213924355
C     3.9198331214     -2.5879002043     -1.3085085328
C     3.7001443756     -0.0046972872     2.8387121544
C     2.9149773544     -1.1699843777     3.1086582845
C     2.9838234459     -2.3087958893     2.29683476
C     4.6042551361     -0.0006241939     1.7932712698
C     4.757388663     -1.1762513348     0.9783485279
C     3.9262910672     -2.3050099968     1.1651954727
C     3.9281578128     2.3095557723     1.1847826168
C     2.9856914129     2.3044977101     2.3164180331
C     2.9159148639     1.1588874615     3.1185449353
C     4.7583417068     1.181751574     0.988354387


