98

 C     -2.7708003636     -3.487300849     0.2354074737
C     -1.4823092479     -4.1769893132     0.4277194963
C     -3.191252935     -3.2051656258     -1.0745847852
C     -0.7309582932     -4.5290690587     -0.7033232678
C     0.731947029     -4.0386702055     1.6754380879
C     -0.7437637506     -4.037361729     1.6726481329
C     -1.4167931672     -3.4062185108     2.7271445889
C     1.4020962638     -3.4087143097     2.7324732235
C     0.6761701878     -2.6872213775     3.7380719156
C     -0.6934014308     -2.68600956     3.7354826628
C     1.4749491913     -4.1796044268     0.4333098055
C     2.7653733519     -3.4921965187     0.2458743687
C     0.7272596954     -4.5303587289     -0.7005679195
C     3.1912755086     -3.2108024364     -1.0625162586
C     -2.6845817198     -2.719359847     2.5370108002
C     -3.3293235714     -2.6548672056     1.2899618137
C     -4.1267434993     -1.4583989097     0.9664875838
C     -2.6825222171     -1.5959434143     3.4258354956
C     -3.3852063032     -0.463005614     3.1048487749
C     -4.1785349372     -0.4207524601     1.9172362537
C     -1.4002285249     -1.4736263984     4.0536398211
C     -4.3857455727     -1.0969669434     -0.4266572079
C     -3.9661758046     -2.0184456917     -1.3990939389
C     -4.2784484772     0.9683445911     1.5315439446
C     -4.4838190579     1.3555166006     0.1926695882
C     -4.5509189978     0.3089780674     -0.8232932591
C     -4.0286946415     2.6597301316     -0.1467259493
C     -3.4415875099     1.7281713784     2.4100150505
C     -2.8064486962     2.9094653032     2.0042361751
C     -3.2390415227     3.4360947642     0.7539605999
C     -1.1382142195     4.6152586199     0.4919496467
C     -2.3348299919     4.2326888905     -0.0374549963
C     1.3839332859     -1.476094493     4.0589004393
C     0.7200347888     -0.2254701984     4.1437519985
C     -0.7344440802     -0.2241821725     4.1410029591
C     -1.4552540748     0.9805243579     3.7288099238
C     -2.8020670548     0.831655885     3.3347495481
C     0.721177087     2.1752455913     3.2892114801
C     -0.7281107631     2.1765279435     3.2864685776
C     -1.4529858368     3.1698180729     2.5039437442
C     -0.7051862918     4.134767451     1.7981751049
C     -3.5439633736     2.9433560022     -1.4829818487
C     -3.5754564835     1.9571826997     -2.4284335192
C     -4.1860056783     0.6788821921     -2.1418887111
C     -3.5679020567     -0.2529311455     -3.0240810869
C     -3.5267456893     -1.5833613095     -2.6963393936
C     -2.4167272685     3.8273539533     -1.4164537347
C     -1.145506875     -4.1320780807     -2.0134095101
C     -2.3382280116     -3.4752836667     -2.1924867013
C     -2.4152485162     -2.3817180593     -3.1243502636
C     -2.424040531     0.3663983053     -3.6596638093
C     0.0085124778     0.4106238703     -3.8718229853
C     -1.2344868325     -0.3430887304     -3.8882249125
C     -1.2484207174     -1.7981536613     -3.6749096205
C     2.4401649011     0.3621069726     -3.6504611362
C     1.2502340263     -0.3452817973     -3.883522027
C     1.2607907853     -1.8003668828     -3.6701647952
C     0.0052601259     -2.5205984642     -3.520893497
C     0.0027836604     -3.7280945778     -2.7767700244
C     -1.2341491079     2.4756752716     -3.1183218907
C     -2.4268222517     1.7480167487     -3.2826832236
C     2.4304800903     3.8230756642     -1.4072829234
C     1.2603980242     3.6059590551     -2.1795652374
C     1.2519626233     2.473482931     -3.113618156
C     0.0090292554     1.8170578045     -3.4877446417
C     2.4439629415     1.7437200901     -3.2734682597
C     -1.2441202007     3.6081697363     -2.1843026415
C     0.005675457     4.7112817401     -0.3628776273
C     0.0076151921     4.1253998294     -1.6623501687
C     1.1474617534     -4.1341003268     -2.0090730395
C     2.3420110808     -3.47941532     -2.1836366195
C     2.4244933045     -2.3859884139     -3.1151990002
C     4.1969236401     0.6714810026     -2.1260289867
C     3.5805166679     -0.2592396564     -3.0105551712
C     3.5357740526     -1.5895978218     -2.6829839824
C     4.5561915242     0.3009319304     -0.8060653407
C     4.3870376061     -1.1047202501     -0.410064789
C     3.9695202472     -2.025456594     -1.3840875017
C     4.0355694444     2.6526058442     -0.1314686798
C     3.5563969916     2.9370899967     -1.4695505565
C     3.5897204747     1.9508579671     -2.4148765221
C     4.2759858976     0.960779271     1.5477250907
C     4.4870994781     1.3475906711     0.20964012
C     1.1461522061     4.6132376178     0.4962720187
C     3.4371535026     1.7220884747     2.4230285559
C     2.8056426884     2.9045032167     2.0148546863
C     3.2438887292     3.4303656922     0.7662252476
C     2.3440857062     4.2285562447     -0.0286022366
C     2.6683750968     -1.6006813401     3.4359579298
C     3.3742615451     -0.4689868469     3.1176276791
C     2.7925551852     0.8267043733     3.3453297987
C     1.4445261417     0.9779568596     3.7342944875
C     1.4507600124     3.1672498192     2.5094374165
C     0.707340477     4.1335179926     1.8008491052
C     4.1221280576     -1.465696003     0.9820878363
C     3.3213758417     -2.660751865     1.302538915
C     2.6718082413     -2.7241010766     2.5471378676
C     4.1721546037     -0.4281396006     1.9330265208


