98

 C     -2.9235707147     -3.5993726363     -0.7665440152
C     -3.6019425407     -3.0505252074     0.3508406836
C     -4.5839474762     -2.0637093461     0.0595987509
C     -4.9737268948     -1.0744104542     1.0364884725
C     -4.3458091128     -1.0556592706     2.2643849297
C     -1.6280779664     -4.1951765536     -0.6294015236
C     0.4444629293     -4.4383078772     0.5210471736
C     -0.9520718622     -4.2193151681     0.6001607402
C     -1.5239455671     -3.4993206717     1.7448585109
C     -2.8827957264     -2.9931288684     1.6292983249
C     -3.2883806011     -2.0022113674     2.5467301078
C     -4.9297155201     1.3837665521     0.9392584195
C     -4.314830693     1.4107532742     2.2506562344
C     -5.2445700922     0.1720387201     0.3432693264
C     -3.9889800987     0.2134670464     2.874394735
C     -2.7132849991     0.0678548234     3.494795238
C     -1.7407418868     1.0953969575     3.4873713391
C     -0.0321505048     -0.6954401258     3.770943617
C     1.3071423786     -1.0871710929     3.778417629
C     1.3146757729     -4.0397884851     1.5619177754
C     0.8153400827     -3.2373655672     2.6240413839
C     -0.6115410807     -2.9232545117     2.6929358557
C     -1.0010440254     -1.7200683204     3.4082230142
C     -2.3272621733     -1.325417164     3.3520325694
C     1.7348994408     -2.3686425986     3.2390138169
C     -2.504779718     3.9730455557     0.5780347905
C     -4.3461603586     2.4499552395     0.1538268151
C     -3.5393023186     3.2203687159     1.0587130096
C     -0.3549334561     0.718653185     3.6644597901
C     -2.0833479384     2.3677334945     2.8750730141
C     -3.3746467449     2.4975336884     2.293456144
C     -1.2867633571     4.096542255     1.3247712623
C     0.7066920398     1.6677101469     3.3735800801
C     -1.0049913964     3.229121415     2.4004703587
C     -2.1722078435     3.9302424364     -0.8162855677
C     -2.7604289991     2.9988723927     -1.6786028302
C     -3.9317112785     2.2473007258     -1.1886805416
C     -4.2866197495     0.9747068679     -1.8084790733
C     -4.9539453915     -0.0318023558     -1.0431942104
C     -3.4864591604     0.519361711     -2.8853223153
C     -0.7824823696     4.2986979486     -0.9282094507
C     1.4289453618     3.931371937     -1.7258834407
C     0.0435244969     3.8176453793     -1.9628972666
C     -0.4833188229     2.7870110506     -2.8483837177
C     -1.8954542602     2.4457569072     -2.7325956402
C     -2.3174901419     1.2559280579     -3.3300258313
C     1.0900464331     4.2866874183     0.6899418561
C     -0.2614776016     4.472954901     0.3922081111
C     1.9531400548     4.2338839841     -0.4404019441
C     2.3584759064     -0.1665732903     3.6458259721
C     2.0825455057     1.2040052354     3.4052376441
C     0.3940825196     2.9003293704     2.6691860704
C     3.0873495554     1.9242488415     2.71831779
C     2.7656009212     3.0697463959     1.9759135558
C     1.4344301997     3.5633040771     1.9061440523
C     -3.2660889751     -0.8625088352     -3.1490266345
C     -3.7957733296     -1.8578108077     -2.2804129982
C     -4.646290757     -1.4345289021     -1.2328185428
C     -3.0061776718     -3.0099941327     -2.0598203529
C     -1.9446781195     -1.0016440942     -3.7039825935
C     2.2187879856     -0.4124595223     -3.6154288544
C     0.8535804504     -0.6335675748     -3.7926274209
C     0.3308308793     -1.9439505881     -3.4513418577
C     -1.1207226665     -2.1155663734     -3.4467336309
C     -1.7072287197     -3.1625710548     -2.6828715306
C     2.3740226126     3.0734174323     -2.4068392523
C     1.8874938365     2.0324425404     -3.2289666029
C     0.4521229636     1.8567200839     -3.4358943685
C     -0.013023283     0.5439898767     -3.8459267898
C     -1.386987874     0.3200431313     -3.8528338924
C     2.7486313521     0.9195446258     -3.3647120739
C     3.0746815539     -1.3736419419     -3.0230375588
C     2.5612244207     -2.5672288139     -2.4699433475
C     1.1683159704     -2.8815282498     -2.7373838772
C     0.5154642896     -3.8708682526     -1.8813674986
C     -0.8977194857     -3.968087168     -1.855391425
C     1.1702443629     -4.3230571923     -0.7204381947
C     4.1654354692     -0.639168599     -2.4175395754
C     4.7486389488     -1.0932846766     -1.2661299629
C     4.2951116623     -2.3407547854     -0.6900501395
C     3.2446547775     -3.0983916801     -1.2902974102
C     2.508518123     -3.926127025     -0.410568055
C     3.5368629606     2.9216451004     -1.5980683075
C     4.3015032538     1.7254336638     -1.6015352779
C     3.9423379105     0.7844312823     -2.6051155791
C     4.518151935     1.931719415     0.8669598254
C     3.6745829381     3.1079922158     0.8363304172
C     3.2549453822     3.6236113276     -0.3611379784
C     5.0979346124     -0.1654198973     -0.2033575316
C     4.8534366027     1.2296208579     -0.3358177637
C     3.4688246274     -0.8598536467     3.0231762362
C     4.8662139674     -0.8570271796     1.0184783995
C     4.3673636445     -0.1685940838     2.1636263916
C     4.2080688589     1.2348908381     2.0613442148
C     2.6291529956     -3.8136552722     1.0097382979
C     4.4192467582     -2.2143593918     0.7255455054
C     3.5249285453     -2.8874090745     1.5955302376
C     3.0818230755     -2.2110493506     2.777785758


