98

 C     -3.0933432115     -3.4713153141     -0.8156381937
C     -3.5194661379     -2.4769950799     -1.7005103097
C     -4.5116801971     -1.5661249707     -1.1966850728
C     -4.6473392262     -0.239354475     -1.7419884231
C     -3.8432232052     0.1373985851     -2.7809015499
C     -1.8157922475     -4.108728996     -0.9764527247
C     -0.8571253115     -3.6809866367     -1.9229882478
C     -1.2257565061     -2.5664636923     -2.8006894381
C     -2.5775283152     -2.0383507537     -2.7301377341
C     -2.8228889892     -0.7631492587     -3.2929856648
C     1.2238343738     -2.161921186     -3.225782706
C     -0.1685587376     -1.7660296714     -3.3832315027
C     -0.447486704     -0.3952248253     -3.7848900418
C     -1.7699773533     0.0467403438     -3.7544519371
C     2.2166768493     -1.2012974246     -3.5243494256
C     1.5912623797     -3.2749585073     -2.3635624854
C     0.5423856703     -3.9913639037     -1.6584150827
C     2.9078907356     -3.2955866697     -1.8246156289
C     -2.7101562186     3.4933971169     -1.7086608091
C     -3.6666777496     2.4667962827     -1.8706150798
C     -3.3683914504     1.5035577789     -2.8853739995
C     -2.1020248864     1.4483257085     -3.5108556844
C     1.8949877478     0.1881182461     -3.7271936954
C     0.5880032459     0.63379257     -3.7800703617
C     0.2968898872     2.0064656552     -3.3600944245
C     -1.0858355312     2.3941153735     -3.242119373
C     -1.4485599817     3.4646482314     -2.3920268384
C     -4.4632092698     2.0392317283     -0.7053216137
C     -4.9704676192     0.7004262575     -0.6787758055
C     -2.4666482406     4.0973635018     -0.4152087303
C     -3.1585306047     3.6390580819     0.6914052623
C     -4.1840438763     2.6283652923     0.5514334994
C     -1.0819485797     4.4189052902     -0.2998678526
C     -2.4483198971     3.4079725165     1.9112657734
C     -1.0746634977     3.6505401545     2.0313157795
C     -0.3737042609     4.2490175312     0.9020722456
C     3.0536677916     3.5602402107     -0.5127389929
C     1.7232314629     4.0028226624     -0.4908183803
C     1.0701531037     4.1748356406     0.8063201449
C     1.7620267695     3.7580758114     1.9575791745
C     2.9499970418     0.9979290375     -3.1852033082
C     2.6547094619     2.2497247616     -2.5990153658
C     1.3041706867     2.7612618076     -2.6672729131
C     0.893269873     3.7469762149     -1.6674416284
C     -0.4527887933     4.0776613833     -1.564676188
C     3.5273832709     2.6767812608     -1.5673302531
C     -4.1704744635     1.8386983468     1.7545228927
C     -4.5777220592     0.4769712507     1.7537300992
C     -5.0397246776     -0.0588882319     0.5125586771
C     -3.9344540981     -0.3972406794     2.6709596158
C     -3.0620926971     2.2772717022     2.561766337
C     1.0545674302     2.9644230525     2.9628569847
C     -0.3230575909     2.80780846     2.9529299268
C     -0.8709110522     1.5638464503     3.4604473344
C     -2.2921548483     1.3509924348     3.3021974132
C     -2.7983904588     0.0346901039     3.4102772062
C     -3.758883071     -1.8030687455     2.3766101788
C     -4.177065122     -2.339280005     1.1233017699
C     -4.7966044303     -1.4682094937     0.1875565238
C     -3.4117120312     -3.4092827422     0.5951319694
C     -2.5425628091     -2.2299056317     2.973882843
C     -1.7638394671     -3.2788652158     2.4441407969
C     -2.3010940711     -3.9518062548     1.3124465337
C     -0.0934629528     -4.6802924402     0.6389898484
C     -1.412509632     -4.5244483356     0.3401779842
C     1.9264229764     1.9260465539     3.3998386349
C     1.4346668524     0.6113735039     3.6019728601
C     0.0097650637     0.4363079725     3.6824578585
C     -0.5196553805     -0.9230875785     3.6217854544
C     -1.9092891636     -1.082701859     3.5737216012
C     1.7391835363     -1.8304759167     2.9936860257
C     0.3320023468     -2.0496728911     3.2085412964
C     -0.3152608783     -3.2302716234     2.6516868499
C     0.4637335862     -4.0928793862     1.852609351
C     0.8751552824     -4.577602379     -0.4023060201
C     2.1199216515     -4.2818282705     0.2451530707
C     4.2603260751     -1.0710152257     1.8238740504
C     3.7254613973     -2.3218026015     1.4902045448
C     4.0309447801     -2.7958074033     0.1814173372
C     3.1339995637     -3.7196499186     -0.4667060417
C     3.2204062162     2.1807578207     2.8272723985
C     4.0478339262     1.1222195726     2.5342803183
C     3.603847136     -0.2232673299     2.7922371927
C     2.3080640446     -0.5131032785     3.2746952082
C     2.5079354625     -2.7552131537     2.1730605255
C     1.8329919383     -3.8537797267     1.610432142
C     4.6586866858     2.1368691219     0.3827490269
C     3.7712293649     3.2407893113     0.6811148579
C     3.1022863008     3.2932431126     1.9056600271
C     4.8241328025     1.117014162     1.3054420666
C     3.9564606947     0.1320868282     -2.6651351735
C     4.6776072903     0.4704036486     -1.4917646061
C     4.5211661099     1.808135498     -1.0264235533
C     4.5486702252     -1.9210517935     -0.8186927455
C     3.8486810247     -2.2388800911     -2.0545644782
C     3.5202222257     -1.2235839598     -2.9239343241
C     4.944416934     -0.2514701136     0.8669574656
C     4.944988278     -0.5924203035     -0.5135225694


