98

 C     3.1986936266     1.8030281687     2.6725631801
C     3.7115098734     0.4968491366     2.6487089827
C     4.7657079949     0.2573680254     1.7141941886
C     5.0336768154     -1.0770578834     1.234910575
C     4.2863286658     -2.1279200891     1.7211200606
C     1.8580127371     2.0724785318     3.1184279131
C     0.9544985777     1.0422442896     3.4288375568
C     1.4434461607     -0.3320099291     3.4110962982
C     2.8369926046     -0.5887608387     3.076666978
C     3.205356558     -1.8925525934     2.6678079062
C     -0.9490441581     -1.0906511871     3.42216816
C     0.4766671238     -1.3917979697     3.3363995877
C     0.8779726353     -2.6766277895     2.7988655899
C     2.2205709245     -2.8831567117     2.4569041168
C     -1.8535906113     -2.1180040728     3.1052804453
C     -2.8326615809     0.5434914515     3.0911916944
C     -2.21824784     2.8434945275     2.4905130951
C     -0.8745340749     2.6338521463     2.8261432076
C     -0.4714821665     1.3441446078     3.3505270997
C     -1.4380271121     0.2836991818     3.418661247
C     -3.2023476846     1.8509791677     2.6955415043
C     4.8791341518     -1.9609533663     -1.0519855532
C     4.1080715215     -3.0741938956     -0.5414332472
C     5.3742912818     -1.002106317     -0.1750525852
C     3.8640319399     -3.1892342185     0.8308418319
C     2.6014623139     -3.6693823673     1.2860541636
C     3.0284910497     -3.3231107473     -1.4528257474
C     1.8062556063     -3.838138392     -1.0273458334
C     1.6068285888     -4.0879510925     0.3948697919
C     -1.4296516181     -3.3362799785     2.4523829511
C     -0.0823326176     -3.5620388794     2.1757047524
C     0.2678680748     -4.2150016985     0.9211297333
C     -0.7519628076     -4.4655400457     -0.0037591232
C     4.8548728954     0.7995319371     -1.7683682663
C     4.2437782092     -0.1887570375     -2.6405195718
C     5.3559098717     0.4044505348     -0.5364349918
C     4.2526400045     -1.5340620199     -2.2931612286
C     3.0781677527     -2.3158621576     -2.50386341
C     1.8845831642     -1.7492401478     -3.0223573991
C     0.6459239458     -3.5749774312     -1.8583763967
C     -0.5634535537     -4.0797452886     -1.3970398678
C     2.798282145     3.753496551     -0.8439787055
C     3.9080404193     2.8865703212     -0.7662565393
C     4.0995112787     2.0236195073     -1.8835055292
C     3.0289266635     1.777417806     -2.7975146112
C     0.5980220547     0.3807731403     -3.4058695367
C     0.5743199833     1.8193683697     -3.1047509371
C     1.8103585502     2.4808241697     -2.739877386
C     1.7910252776     3.5930147849     -1.8605973322
C     -3.0805520967     -0.3809455417     -3.191092346
C     -1.8812048556     0.3498248276     -3.3526986371
C     -0.6598343064     2.4513011279     -2.7588210393
C     0.6449047086     -2.4427774136     -2.7834495523
C     1.8643477652     -0.3359167614     -3.3620099987
C     3.0642315424     0.393356441     -3.1976432215
C     -1.8030032463     -3.5927334501     -1.8876958927
C     -1.8252114614     -2.4725118512     -2.7566533716
C     -0.5903715424     -1.8077136455     -3.1195003461
C     -0.6150415063     -0.3664121548     -3.407309084
C     -3.0439544848     -1.7686260289     -2.8038175631
C     4.3439474243     2.41861468     0.5577902853
C     5.0287460745     1.1789047103     0.6501150628
C     2.1223916199     4.2308849658     0.3395244938
C     2.4702383307     3.707508862     1.5818676827
C     3.5630881887     2.7810708407     1.6868631872
C     0.7461983808     4.4484589766     0.034724943
C     1.4319468796     3.2966938598     2.4781459387
C     0.0837285932     3.5249664359     2.2079886897
C     -0.2705872917     4.1894225911     0.9606234523
C     -3.0390182168     3.3193407604     -1.4123347002
C     -1.8153816356     3.8304519802     -0.9861601653
C     -1.6112736162     4.0671916574     0.4376262486
C     -2.6029766801     3.6404378067     1.3281943353
C     -1.9003016316     1.7599672243     -3.0000107199
C     -0.6577938836     3.5749539034     -1.8233863655
C     0.5531028152     4.0754803251     -1.3614148296
C     -3.0921652347     2.3217859617     -2.4724106364
C     -4.888351609     1.9535263601     -1.0179378426
C     -4.1155978829     3.0620422635     -0.4997202432
C     -3.8670428649     3.1644732077     0.8727435984
C     -5.3806348603     0.9866565536     -0.1482287432
C     -4.8664894499     -0.8002607488     -1.7597285319
C     -4.2582499468     0.1960081074     -2.6247683058
C     -4.2659480868     1.5380644619     -2.2650367722
C     -5.3634641889     -0.4165219112     -0.5225766538
C     -2.8069144892     -3.7625618393     -0.8692864662
C     -3.9163980626     -2.8964036654     -0.7799536386
C     -4.1115297662     -2.0232285895     -1.8885932279
C     -3.5633745105     -2.8134414481     1.672882685
C     -2.470891947     -3.7388596292     1.5557879985
C     -2.1271430143     -4.2507954729     0.3075499682
C     -5.0324117455     -1.2018387046     0.6557261968
C     -4.3479410233     -2.440638334     0.5497634795
C     -4.2864248538     2.0950167743     1.7546171013
C     -5.0353867213     1.0486558334     1.261238349
C     -4.7658653865     -0.2901145415     1.7273571871
C     -3.708599036     -0.5381539695     2.6561577244
C     -3.1957264042     -1.8444880096     2.6663214739


