98

 C     3.1321041689     -2.5780636902     -2.1853893953
C     3.7035456567     -1.3064416589     -2.3723075518
C     4.5976545132     -0.8720511416     -1.3526199175
C     4.8858178636     0.5222454     -1.1656474985
C     4.2719517588     1.4562847717     -1.9864230753
C     1.8550968676     -2.9125370535     -2.7520238849
C     1.0905070939     -1.9725991029     -3.4718762858
C     1.6306006604     -0.6309591125     -3.6556979528
C     2.9606509197     -0.3220266678     -3.1522507107
C     3.2931052928     1.0329572359     -2.9632547382
C     -0.634412388     0.1309588232     -4.167036203
C     0.7113321142     0.4526362838     -3.9116596471
C     -2.3339981543     -3.1208969729     -2.4159654466
C     -0.9578138971     -3.2466990588     -2.7089541626
C     -0.3316587701     -2.2358227528     -3.5593967601
C     -1.1400738584     -1.1978004706     -4.0578985672
C     4.5363659626     1.9755207691     0.7784900572
C     4.0001223923     2.9960514054     -0.1012023859
C     4.9884049765     0.7731494024     0.2566081342
C     3.8399767309     2.728133109     -1.4482244321
C     0.7058136929     4.4682529736     0.7308114426
C     2.96121974     3.7004580943     0.5993233989
C     1.8166090016     4.1929971982     -0.0790764865
C     0.9934742463     1.8096514651     -3.4664529174
C     2.3024198552     2.0738903864     -3.0631123435
C     2.6043926921     3.1015330671     -2.1158744879
C     0.2177043058     3.6704552884     -1.9792291411
C     1.5790495888     3.8159955919     -1.4776300177
C     -0.0614383285     2.6998264923     -3.0095737575
C     3.9050157656     -0.4782689825     2.1116587677
C     3.3800889595     0.7893093035     2.630286497
C     4.699741233     -0.44850672     0.9423613927
C     3.7504981449     1.9797257581     1.972481738
C     2.829160351     3.0893305624     1.8923712512
C     0.6137105995     3.9622482118     2.065498209
C     1.5961389131     3.0925850356     2.5851171738
C     1.2028572285     1.9274908139     3.3536686139
C     2.1369297525     0.8115275221     3.4018165555
C     1.649052838     -0.4233571122     3.8314330029
C     2.2261491852     -1.6828337883     3.3980070771
C     3.2457390666     -1.7389406978     2.4402000284
C     3.248362122     -2.8676577109     1.4967256652
C     1.1798281661     -2.6599253608     3.4547120711
C     1.1659641051     -3.7095563496     2.5568798483
C     2.2245859353     -3.8330361837     1.5991273152
C     -0.0420518471     -2.0179092181     3.8275771475
C     -0.0794305186     -4.1064005327     1.9568117183
C     -1.2909501242     -3.4716471536     2.2792715632
C     -1.2773455824     -2.3967079055     3.2791103385
C     -2.9700798161     0.9686414469     3.3059630434
C     -2.0539490105     -0.0278962699     3.6976679299
C     -2.3371003474     -1.4110853608     3.3181309602
C     -3.4709057096     -1.6746847896     2.5192464816
C     -0.7662796237     3.7876197     2.3733767192
C     -1.1839194572     2.6980576838     3.1641895586
C     -0.2052905508     1.7215821882     3.6355569301
C     -0.683360447     0.3900557089     3.9588887755
C     0.2648663441     -0.6324376946     4.0987082338
C     -2.5416983971     2.294616888     3.0020812042
C     3.8536538886     -2.6770872652     0.1813627365
C     4.574148267     -1.4921717736     -0.0603907937
C     1.6341693275     -4.4395647669     0.4197739197
C     2.1316528047     -4.1556925214     -0.8323253719
C     3.2798060862     -3.2986264772     -0.9585381508
C     0.212831479     -4.5428876046     0.6093192309
C     1.2403417914     -3.9221031109     -1.9280663648
C     -0.1579368068     -3.9928269853     -1.7677100368
C     -0.6936993552     -4.3342741939     -0.4488684689
C     -3.461331483     -2.700314101     1.5051013156
C     -2.3429637095     -3.5226736493     1.2835078786
C     -2.0408393053     -3.9404443928     -0.0881609852
C     -2.8703759718     -3.4813879495     -1.1281180056
C     -4.7366000028     -0.9011362641     0.6947188476
C     -4.2873895662     -2.2386558685     0.4186978187
C     -3.9845905415     -2.6073969884     -0.8700863037
C     -4.7443256995     0.1065478624     -0.2966744015
C     -4.3929003395     -0.2842567086     -1.6735090302
C     -4.097768139     -1.6413409822     -1.9310564621
C     -4.2681676293     1.7575092278     1.5213849354
C     -4.0838380018     0.6743290821     2.4459499461
C     -4.3232392849     -0.6182244     2.0504897854
C     -4.0223591942     2.4348363026     -0.7884384137
C     -4.5395084874     1.4936357183     0.1492379305
C     -1.540679019     4.2432669304     1.2486258777
C     -3.1814841807     3.522001297     -0.3831382577
C     -2.8172301509     3.6951293276     0.9763312665
C     -3.3610141334     2.7982342839     1.9257109045
C     -1.6966111223     1.0536046926     -3.8800045876
C     -1.437621761     2.2974521915     -3.2623374412
C     -2.4863833748     2.8268641674     -2.4798563648
C     -2.2109877492     3.7445529734     -1.4245435754
C     -0.8890670027     4.1611995435     -1.15218539
C     -0.618619265     4.541837615     0.1966304771
C     -3.1280536731     -2.036827832     -2.9294386189
C     -2.5340227974     -1.0883644336     -3.7302487421
C     -3.7893527219     0.709639714     -2.5708689733
C     -2.8825040134     0.29520626     -3.5817253427
C     -3.6251211386     2.0331820119     -2.1046638649


