98

 C     -0.5303512548     4.5324288756     -0.3467348226
C     -1.3827975171     4.2578738435     0.7273962797
C     -2.7014545845     3.859661348     0.3673399945
C     -3.5229730179     3.0893882027     1.2658004366
C     -3.0025453741     2.6945807429     2.4734479299
C     0.9006812038     4.5138366503     -0.1976764825
C     2.8330262992     3.5936174427     0.8845153518
C     1.5014049556     4.0665117314     1.0013054115
C     0.6426792665     3.5643996987     2.0835725119
C     -0.7887311556     3.7756782415     1.978932142
C     -1.632595512     3.0297715615     2.8224322086
C     -3.9333026903     -0.8879124554     2.5130613429
C     -4.1752131027     0.485120958     2.2972047228
C     -3.3118378029     1.3831874523     2.9999633568
C     -2.1597597071     0.9268276325     3.6902226542
C     1.9154289051     -0.121591993     3.8022818256
C     0.5772333522     0.2250977063     3.9024315615
C     -0.4306117067     -0.8327641872     3.8249754116
C     -1.8158693239     -0.443433728     3.7479686847
C     -2.7718906646     -1.3426902551     3.2180285756
C     3.3669975222     2.6411837252     1.818071111
C     2.5411242079     2.0820249952     2.8082814156
C     1.1522485625     2.5216987096     2.9442930636
C     0.2255824686     1.6273430888     3.6156792984
C     -1.1284770202     1.9456142881     3.5879858778
C     2.9068760256     0.7941889719     3.2906548622
C     -4.7201880577     0.9077293986     0.9987303142
C     -4.3647095958     2.1908511849     0.5022537519
C     -4.2285395597     -1.8791956954     1.4983671412
C     -4.7532530747     -1.4893351438     0.2802832935
C     -4.988422779     -0.0762392646     0.0156970789
C     -3.2378058065     -2.9081202101     1.547412824
C     -4.3131951377     -2.137382234     -0.9147587443
C     -3.3106712883     -3.1373896088     -0.9028541453
C     -2.756124189     -3.5461573919     0.3894196947
C     0.7760009235     -4.2121148825     1.5756375032
C     -0.6004834682     -3.9472652229     1.6697820513
C     -1.4363080317     -4.1557662257     0.4836261992
C     -0.7849903584     -4.4709941883     -0.7301245448
C     2.3295984756     -1.458467852     3.5082841622
C     1.3615309671     -2.4626268459     3.2424250108
C     -0.043273721     -2.1558576096     3.3942824174
C     -1.0180867687     -2.9964931731     2.6950866416
C     -2.3487399814     -2.583402393     2.6496595566
C     1.7485010634     -3.4920154096     2.3534195701
C     -4.3494194886     -1.1233183191     -1.9532829678
C     -4.6981555625     0.1505272745     -1.3665273577
C     -4.0780470402     1.3527981494     -1.8143057582
C     -4.0287133797     2.3936261504     -0.8664868229
C     -3.4672831397     -1.1584179278     -3.0004539237
C     -2.5410528498     -2.2507580884     -3.1115469543
C     -1.2466289717     -3.9166848027     -1.9824291529
C     -2.4726424687     -3.2520964874     -2.0923937208
C     -2.8221066127     0.0523238051     -3.4678191323
C     -3.0434112015     1.2989618081     -2.8612117058
C     -1.9640688649     2.2686031718     -2.9045973663
C     -2.0207178948     3.3893268249     -1.9683902293
C     -3.0065500361     3.4173742041     -0.9536096861
C     -0.845449041     4.1123803547     -1.6765164227
C     -1.5318354725     -0.3280244317     -3.9331162572
C     -0.4431300276     0.5415911202     -3.906317407
C     -0.6830478578     1.910991364     -3.4771952115
C     1.7852703348     2.199326065     -3.399276132
C     0.4845216612     2.7499441157     -3.230262762
C     0.3868441679     3.8426635571     -2.3462853208
C     -0.0855068578     -3.5029052575     -2.7278453951
C     -0.0941072974     -2.3157826995     -3.4964584402
C     -1.3662121327     -1.7527934248     -3.738659451
C     1.0871976484     -1.4860113654     -3.5377399906
C     0.8970665487     -0.0594005985     -3.8619417735
C     1.9721169807     0.7978378789     -3.698558826
C     2.8986110089     2.619170518     -2.6242123381
C     2.7376439131     3.5758879176     -1.5796726238
C     1.4767661972     4.2037577524     -1.4741783803
C     3.464809532     3.3792116696     -0.3756023217
C     3.7830955852     1.4841377171     -2.4505722351
C     4.8404049463     -0.0395246456     -0.8828989803
C     4.5410816121     1.3061229176     -1.2591311618
C     4.383863886     2.2709167241     -0.2237999218
C     1.0849376746     -3.8955676101     -2.0182097471
C     2.2607911567     -3.1325095918     -2.0442607795
C     2.2862229783     -1.9211959355     -2.8717196744
C     4.2884590244     -1.1508812681     -1.6002259202
C     3.3663978041     -0.9625838181     -2.6558190661
C     3.2110074537     0.3664676309     -3.1260524494
C     2.7077884076     -3.9225842716     0.2810315497
C     1.3975701388     -4.5167395152     0.3222946523
C     0.6358025687     -4.5769970261     -0.8157553076
C     4.1471178272     -2.253920483     -0.6817993171
C     3.1593513843     -3.2499281168     -0.8814227145
C     3.5671752054     -1.3787751338     2.805302221
C     4.5366139816     -1.8123002978     0.6081080778
C     3.8633089063     -2.3004870464     1.7694464866
C     2.9691591044     -3.3856852754     1.5887626836
C     4.3689862304     1.858697921     1.144948264
C     4.9378488676     -0.424101047     0.4960242858
C     4.6179864182     0.5039336653     1.5177290605
C     3.9213350961     0.0191537267     2.6728393232


