98

 C     4.5624664248     -0.7711852143     1.5303937832
C     3.6944859418     -1.57654963     2.3166177271
C     3.151318795     -2.824707556     1.7920975517
C     1.8435015677     -3.3041951391     2.2577554139
C     1.1658320484     -4.2340898562     1.4558875803
C     2.9432360488     -0.8924870211     3.2903268295
C     2.9178019661     0.5286085816     3.3517639891
C     3.6012071193     1.3456854888     2.4280558344
C     4.5179134584     0.6580674997     1.5832488137
C     1.640994861     -1.3658350684     3.7199507893
C     1.0256759595     -2.4918452979     3.1703119195
C     -0.4491178777     -2.537361721     3.134347465
C     -1.0772382512     -3.5288261502     2.2860167466
C     -0.2731838136     -4.3437992455     1.4606119447
C     -2.4246598511     -3.3430779445     1.8708650313
C     0.8777240038     -0.2401908974     4.1481820915
C     -1.1335727276     1.0266551985     4.0222201382
C     -0.532771951     -0.2428595574     4.0765405414
C     -1.2292684289     -1.3944708962     3.5532714629
C     -2.6005257821     -1.1891247119     3.0552761594
C     -3.1662436507     -2.1840238997     2.2583069802
C     3.3926098522     3.1126772011     0.7431013844
C     2.960502721     2.5923479675     1.9700203392
C     1.62435801     2.9748424918     2.4576986181
C     1.0293058191     2.1403948477     3.4905981921
C     1.6441125276     0.9331716345     3.8798078807
C     -0.3631185742     2.1973218683     3.7195612253
C     -2.8800337478     -3.7394461143     0.5798838128
C     -1.985530797     -4.319177389     -0.3510510613
C     -0.7055149861     -4.6992555508     0.1360873203
C     -2.0628175952     -3.9094449014     -1.7148620452
C     -3.9117307811     -2.8109000663     0.1599517503
C     -4.4636227764     -1.0818940348     -1.4441138749
C     -3.9879414064     -2.3875879424     -1.201213934
C     -3.027432093     -2.9033443667     -2.1233921883
C     -4.5854510427     -0.568556116     0.9810806699
C     -4.1332398626     -1.8887797206     1.2136349617
C     -4.8714180762     -0.2241886095     -0.3736015105
C     -4.1777618605     0.4687931291     1.9181665889
C     -2.4670868166     1.2185977173     3.5159661086
C     -3.1991991136     0.153462109     2.9667876337
C     -4.2711033603     1.8133386811     1.4734251606
C     -0.880931985     -3.7121006468     -2.4692041573
C     0.4037068488     -4.0392860436     -1.9820112823
C     0.4481499318     -4.6825423066     -0.715133538
C     1.6014447303     -4.5406381598     0.1249063513
C     2.7396364685     -3.9573668999     -0.3730540491
C     -1.076429348     -2.5367647424     -3.2893813356
C     -0.0353715533     -1.665324584     -3.5963984058
C     1.3354617067     -2.032162584     -3.2218318916
C     1.5408842532     -3.2338742802     -2.4313705125
C     2.7366556009     -3.3338079894     -1.6909276017
C     2.0059339756     0.2684448165     -3.7264258948
C     2.3599207838     -1.0181928452     -3.2401283599
C     -3.8890929063     -0.2567725832     -2.4927947506
C     -2.7670139649     -0.6938879012     -3.2262382028
C     -2.4251759362     -2.0726262623     -3.101835919
C     -1.7526200029     0.2567496292     -3.6042103117
C     -0.4053948308     -0.2686317568     -3.8849470194
C     0.6412318396     0.6213658236     -4.0346004536
C     4.8320285748     -1.1292279063     0.1525374385
C     3.5802345899     -3.2067121353     0.4952352904
C     4.3151172051     -2.287488679     -0.3502815936
C     3.5482113094     -1.1018578684     -2.4075798356
C     3.7087997841     -2.291863553     -1.6655667985
C     4.8674209765     0.0574133394     -0.6603699103
C     4.2045619395     0.1153977513     -1.9181151895
C     2.6654712446     1.4450151146     -3.3090748252
C     3.7250640983     1.4152373621     -2.3537756206
C     3.8177632386     2.5337162662     -1.4787187884
C     4.2688260948     2.3643332356     -0.1388732134
C     4.7996356894     1.1559238422     0.2545289163
C     1.7174574297     2.545732256     -3.3704526107
C     0.5276059813     4.1774138759     -2.0273217449
C     1.7600906912     3.5931145771     -2.4147200433
C     2.7924589075     3.5596839591     -1.4524537561
C     -4.0210949872     1.1050458612     -2.1137327055
C     -3.060366038     2.0715674731     -2.4583544228
C     -1.9237350694     1.6530376523     -3.2752167808
C     -0.7157899391     3.7040210333     -2.5555149275
C     -0.7738834849     2.5469113708     -3.371502154
C     0.4710392205     2.0330794052     -3.8158268633
C     -3.6099844422     3.224302037     -0.3033310836
C     -4.4695737981     2.1254847536     0.0716254598
C     -4.710477307     1.1261359376     -0.8309846981
C     -1.7527958614     3.9804561316     -1.5957082262
C     -2.9338963309     3.2192368156     -1.5542860589
C     -2.5314408278     2.5505268381     2.9941559148
C     -1.1290375397     4.4779398088     -0.4186136862
C     -1.6337448709     4.1983965287     0.8651474106
C     -2.9571707923     3.6812820105     0.8869493953
C     -3.4023900088     2.8315595909     1.9705689365
C     2.520905018     3.8853917559     -0.087329873
C     0.2873122367     4.5531229618     -0.6623023343
C     1.2216561868     4.2617418296     0.3538934995
C     0.7607971939     3.8171295465     1.6680920579
C     -0.6852039034     3.8655728882     1.9382699464
C     -1.194329922     3.1101758507     3.0057849872


