98

 C     1.8199248795     1.6031350979     3.7657110588
C     2.499055649     2.4493617218     2.846595117
C     3.7111013272     1.9514629546     2.3010922557
C     4.1247698843     2.3419827196     0.9984994358
C     3.432429834     3.3290250742     0.3205428167
C     0.4230217724     1.6649570435     3.906728879
C     -0.3853534655     2.5784233346     3.1851834565
C     0.2517334717     3.46527251     2.2433103813
C     1.6974153653     3.4113559708     2.0861747032
C     2.2437555972     3.9040704542     0.8808734507
C     -1.9401039796     3.8267752773     1.2076551141
C     -0.558760831     4.0111396604     1.1626707167
C     -3.5139759828     0.503015569     2.959529896
C     -2.2781014231     0.9223517092     3.4625937647
C     -1.7924478781     2.2610892087     3.1047661655
C     -2.5714793298     3.031623786     2.2191521352
C     4.3406984165     0.9934051507     -1.0758644057
C     3.6715587146     2.0807200899     -1.8157028566
C     4.6129145063     1.1893797889     0.2896815227
C     3.2903980873     3.2422686418     -1.1046955851
C     2.0947401777     3.9840411418     -1.4433103266
C     1.3587452069     3.6516657609     -2.5598457918
C     1.7731375141     2.5444138337     -3.3721733925
C     2.9020745603     1.7650784907     -3.0175136724
C     2.8869909719     0.4291250552     -3.4733073781
C     0.0173237213     4.3121969425     -0.1396549357
C     1.4117024885     4.3276202321     -0.2281587449
C     -0.0699302959     3.7019050019     -2.5225407605
C     -0.7605485599     4.0340751968     -1.3525080656
C     3.6290868037     -0.6128989949     -2.7911993961
C     4.2695312204     -0.3906633942     -1.5577175976
C     4.3655598276     -1.5195869352     -0.610190094
C     2.9700566611     -1.8514428547     -3.0897640966
C     3.0268812836     -2.8964119851     -2.1930559516
C     3.7838381723     -2.7533824695     -0.9802034177
C     1.7472694619     -1.5698755673     -3.7766471973
C     1.8619381549     -3.6887791304     -1.9491456497
C     0.6360267927     -3.3991334674     -2.5669948986
C     0.5679881819     -2.2766709488     -3.5132204624
C     0.5792288631     1.9379617529     -3.8976537446
C     0.5011333228     0.5538508443     -4.1529259813
C     1.7246741192     -0.1552286715     -4.053952186
C     -0.753264349     -0.1413450783     -3.9699805373
C     -0.7032606254     -1.5864579527     -3.7339701188
C     -1.8465163284     -2.2296463524     -3.2657950552
C     4.5048387519     -1.2557520869     0.8241335247
C     4.6445966538     0.0959370346     1.2419428422
C     3.1537391129     -3.6200364423     -0.0093425852
C     3.2168748527     -3.3131964775     1.3321780124
C     3.9514125212     -2.1600695679     1.767351934
C     1.9332349106     -4.1310792813     -0.5612174245
C     2.056644951     -3.4691051365     2.1599152695
C     0.8302347208     -3.8952026921     1.6364580603
C     0.7760845316     -4.27492221     0.2201624171
C     -1.7855660029     -3.3751266794     -2.3742354822
C     -0.5595328705     -3.8514558022     -1.8845513851
C     -0.4903436237     -4.2814678827     -0.4892016932
C     -1.6528165847     -4.1957276459     0.291518878
C     3.3108741208     -1.6822558118     2.9683314659
C     3.3573468223     -0.3084397955     3.3177447841
C     4.1003165077     0.5610902023     2.4688712233
C     2.2419760732     0.2333709163     3.9956771594
C     2.1252590079     -2.4612356305     3.1884223404
C     -1.5877820003     -3.7209963212     1.6695537027
C     -0.3814094215     -3.439684153     2.3106010411
C     -0.3426311868     -2.3553562115     3.2939349765
C     0.9535484951     -1.8777171158     3.7300090562
C     1.0745082323     -0.5511502785     4.2234475062
C     -2.7758232877     -2.9837213517     1.9431337043
C     -2.7378100562     -1.8662956458     2.809316816
C     -1.5020610763     -1.5104217917     3.4620667471
C     -1.3219324461     -0.1121365067     3.8545146818
C     -0.0518038304     0.3255836029     4.2068284347
C     -3.7339972872     -0.8817432782     2.5924034796
C     -3.6020951075     -2.9980628465     0.7657204068
C     -4.4326728831     -1.9075860123     0.4323904665
C     -4.5836406115     -0.9143590373     1.447012524
C     -3.7601191468     -2.1987696145     -1.933833747
C     -2.9648333045     -3.3448255302     -1.5701952442
C     -2.8953174924     -3.7528062096     -0.2436679905
C     -4.7687232346     -0.1178003142     -1.2669361988
C     -4.5197793486     -1.4906248335     -0.9765766694
C     -0.555508683     2.6464995256     -3.393418019
C     -1.7843794044     2.0188432604     -3.1998796425
C     -1.9181819839     0.6082084069     -3.5687254626
C     -4.0441450315     0.5659760518     -2.2870479026
C     -3.0861383731     -0.1011656381     -3.0952114698
C     -3.047062248     -1.5081065343     -2.9734147401
C     -3.9317047195     2.983253409     0.3208878856
C     -2.7529452166     3.7117644596     -0.0037183797
C     -2.139046494     3.6000199323     -1.2647770941
C     -4.4980156917     2.1258689692     -0.6220521629
C     -3.8559359204     1.9473674697     -1.8826798987
C     -2.6795171647     2.635592831     -2.2243809276
C     -4.9401072579     0.4493778177     1.115480915
C     -4.3056558933     1.3222257292     2.0836767876
C     -3.8269591654     2.5616161469     1.7009507494
C     -5.029428178     0.8390403882     -0.210602242


