98

 C     3.7979693737     -2.4850452173     -1.3606206384
C     4.248604609     -1.1750748586     -1.6329814978
C     4.9718097919     -0.526490035     -0.5904767269
C     5.0638372409     0.8807266971     -0.5416169418
C     4.5200312218     1.6466937001     -1.5707068268
C     2.710635109     -3.0341390497     -2.0645313761
C     0.5102567884     -2.6876612253     -3.1396580366
C     1.8816714417     -2.2508967634     -2.9377395267
C     2.2553461461     -0.889462345     -3.1971834764
C     3.5113162839     -0.3867029905     -2.6208598345
C     3.7472521641     1.0074978074     -2.5996060407
C     -1.8572109898     -2.0674072329     -3.4266211579
C     -0.4921464775     -1.7450755845     -3.6105809273
C     1.2319194982     0.0536925183     -3.668799886
C     4.1703699821     2.437757474     1.132006045
C     3.6747807772     3.2790098552     0.0542522662
C     4.8825696263     1.2963546241     0.846097773
C     3.8716801467     2.901561001     -1.2662492184
C     2.787781176     3.0893564672     -2.1940297431
C     1.5992597151     3.770777338     -1.821488637
C     0.4921548179     3.5172375296     -2.638925847
C     -0.1478201307     -0.3540904041     -3.8238434396
C     1.5189159447     1.4697015594     -3.5830726594
C     2.7328375665     1.9273169295     -3.0317971955
C     -1.2335812957     0.6440969838     -3.7984902035
C     -0.893401498     1.9929383934     -3.6578247951
C     0.4562188564     2.3997676269     -3.5367954194
C     -0.7262649124     1.9716446555     3.6660420762
C     0.6002410458     2.2002812642     3.2812137881
C     3.1793953363     2.4305031582     2.1894604595
C     2.9057666059     1.278899538     2.9508877409
C     2.1385133859     3.3413132744     1.7920462221
C     -0.2457695141     3.7814728888     1.4821579841
C     0.8327124449     3.2311875231     2.2777359218
C     -2.6815512829     3.6249470506     1.0023342533
C     -1.6083492271     3.516437181     1.9177012296
C     -1.8298689817     2.6624707978     3.0231793716
C     1.3612766198     4.1121320909     -0.4136821508
C     2.4140607335     3.8395495852     0.4794703533
C     -0.8410362416     3.7907972183     -2.1969247131
C     -1.0948680164     4.1447737506     -0.8427913243
C     0.0115940437     4.1683628617     0.1094468158
C     -2.4083500262     3.8965920643     -0.3932748486
C     1.5699647437     1.1495596069     3.5185047257
C     3.7364062199     0.0950920539     2.7153587599
C     4.6965080488     0.1167345103     1.6533402212
C     1.0795777229     -0.1587344694     3.8933439265
C     1.8958936293     -1.2885216393     3.632940939
C     3.2103381774     -1.1648660656     3.0669740921
C     -2.5815329324     0.6221206466     3.7985969813
C     -1.1812997793     0.7047280843     4.1144645369
C     -0.326764111     -0.4187466636     4.0678175156
C     -3.1246895959     -0.5838133346     3.4409728168
C     -2.2756963814     -1.7523024228     3.3646854848
C     -0.8963449996     -1.7013383469     3.6674403477
C     -3.8399821735     2.8038998119     1.0899921242
C     -3.9710962522     1.8038737931     2.0913881322
C     -2.9885569112     1.8360528998     3.1133823701
C     3.466642554     -2.3360941257     2.2887120576
C     4.2190972857     -2.2442749186     1.0881977086
C     4.8404562183     -1.0081754364     0.7916153418
C     3.810044731     -3.0430027228     -0.0087375963
C     2.2922137175     -3.168831039     2.3589403338
C     1.8648957276     -3.9423153495     1.2665744508
C     2.71843432     -3.9419076039     0.1104770259
C     0.8264510385     -4.3759465331     -1.3295984562
C     2.1338873538     -4.0383564373     -1.195000131
C     -0.0602459879     -2.7084647678     3.0680044459
C     1.3399119627     -2.5311021565     3.2184530025
C     -2.7753805767     -2.5753511164     2.3271011026
C     -1.934825307     -3.4211194297     1.576982156
C     -0.5508752356     -3.5647582262     2.0069808595
C     0.4202109975     -4.1742525327     1.1048424354
C     -0.0350992269     -4.5477033908     -0.1707426445
C     0.0563981681     -3.8260679159     -2.4125365097
C     -1.3009773427     -3.96670173     -2.0275356696
C     -3.4113411954     -2.7883611924     -1.8225291899
C     -2.2573151877     -3.1582034031     -2.5852081616
C     -3.9234402135     -1.8931002293     1.7295817766
C     -4.8710866878     -0.9381468347     -0.2614510065
C     -4.2445611034     -2.0542808632     0.364855833
C     -3.4580706547     -2.9968116398     -0.4256460274
C     -2.3462216317     -3.7257573914     0.2093468937
C     -1.3730380192     -4.3006423437     -0.6172969238
C     -4.2791914585     2.5607974802     -0.2731972514
C     -4.8306077377     1.3544084079     -0.6121653258
C     -5.0216123084     0.3190995202     0.3958347823
C     -4.5746752964     0.5122872035     1.7279285506
C     -4.1330038217     -0.6601047521     2.4090212128
C     -1.7211943527     2.9259741578     -2.9062733582
C     -2.9741426414     2.5595410832     -2.3985344912
C     -3.3674738962     3.201032814     -1.1851644609
C     -3.8917963023     -1.5626204857     -2.4090672557
C     -2.8951557503     -1.0693072524     -3.3254790195
C     -2.6101853112     0.2931126004     -3.4385591881
C     -4.6379017607     -0.6763297332     -1.6717994824
C     -4.4918504199     0.7222792845     -1.8808545398
C     -3.4815599521     1.2419548359     -2.727125466


