98

 C     4.8038108559     1.5225295454     -0.1574454285
C     4.8010896709     0.5311267403     -1.1725295933
C     4.8986193266     -0.8358117769     -0.781730382
C     4.0713860641     0.8165400909     -2.3626563945
C     3.3095179114     2.0239109976     -2.49699196
C     3.2929689326     3.0002308705     -1.4847932332
C     4.1215180781     2.7529198156     -0.3380642339
C     3.3593371235     -0.2238160756     -3.0484210698
C     3.392948036     -1.5579074595     -2.6274328719
C     4.2839998626     -1.8580121062     -1.5404353929
C     3.964139525     -2.9266900978     -0.6257334794
C     2.9124846055     -3.7507930096     -0.8861170957
C     2.156367587     0.3464445585     -3.5999059421
C     0.9726878339     -0.397475521     -3.759165297
C     0.9843105805     -1.808513606     -3.4024791893
C     2.1978351091     -2.3817921742     -2.8414179221
C     2.0573132867     -3.5407793646     -2.0546431
C     -1.460854846     -1.7608279692     -3.4762088575
C     -0.2808567697     -2.4690977165     -3.1731022446
C     0.9168647528     2.4403394633     -3.1262889571
C     2.1251425945     1.7268234006     -3.2821027767
C     -1.5522159021     3.4902692081     -2.2401991378
C     -1.5919529781     2.3173710095     -3.0076760466
C     -0.3190458099     1.7654514984     -3.462479279
C     -0.2569662506     0.3606299421     -3.8205293983
C     -1.4510280702     -0.380002939     -3.8027975197
C     0.9391465824     3.5873577534     -2.2334877473
C     1.8354508502     4.388019997     -0.0780514198
C     2.0900818751     3.8203437318     -1.3500105204
C     -0.3104603519     4.1015304319     -1.8507832824
C     -0.2795542939     -4.678958096     0.3672515788
C     2.1019000845     -4.2727899176     0.1903748895
C     0.8552998814     -4.6325009311     -0.3979118379
C     -0.4158156065     -3.5857680206     -2.2580193036
C     0.7858910209     -4.1080228734     -1.7462351927
C     -1.5534052427     -4.3467558358     -0.2004587069
C     -1.6559105344     -3.7754750717     -1.4867887998
C     -0.2330792459     -4.183370267     1.7155511899
C     0.9195165769     -3.5806423945     2.2429711254
C     2.172732652     -3.7099095921     1.4914277191
C     3.2881197199     -2.8106207469     1.7688642721
C     4.2269088959     -2.4967901211     0.7285934119
C     3.1130469852     -1.8353318592     2.7700387204
C     -1.5476709122     -3.707243516     2.028136905
C     -2.988684681     -1.9659509801     2.7994260513
C     -1.7405080439     -2.596740702     2.8864647403
C     -0.5925710593     -1.856017598     3.3622180659
C     0.7181620819     -2.4348434616     3.1386278973
C     1.8253092101     -1.6286702994     3.4000767876
C     -3.5236855338     -3.0834579108     0.6539224865
C     -2.3833246535     -3.8822931174     0.8788491202
C     -3.9286451191     -2.2730883224     1.7434601444
C     -3.8193480839     -2.6684673095     -0.7120870273
C     -2.7263660916     -2.0630773679     -2.8425576997
C     -2.8279485161     -2.956693303     -1.7626625099
C     -4.6739475079     -1.5511976296     -0.8684451394
C     3.7852864098     -0.5749156801     2.7203869773
C     4.6453640186     -0.2379334435     1.6349493505
C     4.8466099562     -1.2242429695     0.6342065166
C     4.7002400638     1.1328733089     1.2565783347
C     2.9107277201     0.409826921     3.2961815127
C     2.9105553326     1.743043967     2.8803706254
C     3.9228402612     2.1062200045     1.9234327054
C     2.5416371043     3.9143902499     1.0945406273
C     3.6618006853     3.156129402     0.9695195845
C     -3.1517011656     -0.5947865717     3.1726583355
C     -2.0228440882     0.2160474798     3.4480205686
C     -0.7340039782     -0.4316432873     3.6128791763
C     0.4400215984     0.4057831004     3.6745111028
C     1.6890509972     -0.2397860637     3.6908057056
C     -0.8645034434     2.4126753399     2.9462371558
C     0.4012633376     1.8262565034     3.3113084912
C     1.6458223193     2.4790535121     2.9340489016
C     1.5639549303     3.6498436506     2.1447737554
C     -4.3034077608     -0.0968147446     2.4738034109
C     -4.3518720205     1.2298145538     2.1133462326
C     -3.2658143357     2.1024025123     2.463785236
C     -2.0860565149     1.6296087283     3.0990252717
C     -0.8968808418     3.5950811706     2.1002471482
C     0.3274595292     4.1628669831     1.7067826668
C     -5.168480329     0.6253607228     -0.1285802713
C     -5.1418865142     -0.7762746168     0.2608419399
C     -4.753197916     -1.1218109587     1.5487341483
C     -4.8289323077     1.6025712016     0.7918720084
C     -3.5259688335     -0.8751382712     -2.9101540435
C     -4.6920640069     0.724124718     -1.4950203084
C     -4.4842793396     -0.6228325503     -1.9539806526
C     -2.52094999     3.7178759653     -1.1858273081
C     -4.0793048268     2.7456137083     0.3646285752
C     -3.6292826149     2.8693647481     -0.9785929458
C     -3.8452738583     1.7783655297     -1.9150472398
C     -2.8007178988     1.4961202746     -2.914250109
C     -2.7143178012     0.1936010864     -3.4151279545
C     0.5132838261     4.6925444687     0.3542690158
C     -3.2068903159     3.119478484     1.447205394
C     -2.0414672405     3.8557988458     1.2344597368
C     -1.837205957     4.3275931032     -0.0958225712
C     -0.5201762395     4.6609869187     -0.5431459234


