98

 C     4.9566278649     0.7379210317     1.2427424967
C     4.9581282176     -0.7214952112     1.2485091944
C     5.004284729     1.4265059392     0.0446576967
C     5.007214925     -1.4194282555     0.0559046142
C     4.2148472332     -2.6016628548     -0.0948018424
C     2.5036836327     0.0153536241     3.6913487627
C     4.0817722378     1.1980344346     2.2853114545
C     3.6762127992     0.0138486548     3.004823319
C     2.0209183971     -4.1107227432     -0.9163124079
C     2.1568061036     -3.8477672621     0.4746962159
C     3.2889438898     -3.0391016127     0.8975286814
C     3.1933655331     -2.2729767743     2.1289896623
C     4.0842121536     -1.1751544653     2.2946892749
C     1.6721505595     -1.1574344195     3.7117861621
C     1.9271006613     -2.2651989526     2.8752768343
C     1.6697366488     1.1865509327     3.7025290684
C     1.9224157683     2.2881906971     2.8572806422
C     3.1886630452     2.2926769137     2.1109470227
C     3.2826764806     3.0492393672     0.8734686182
C     4.2094867094     2.60587871     -0.1153829113
C     0.777198818     3.0714516196     2.4280153766
C     0.9363974399     3.9376442234     1.2671147557
C     2.1488796101     3.8522017522     0.444269914
C     -0.2258822621     4.473412915     0.6689262938
C     0.3500557814     0.7371701374     3.9765288952
C     -0.7761438544     1.4675775469     3.6011782572
C     -0.5633916737     2.7071668325     2.8685467487
C     -2.9811506966     2.6264849767     2.3053634285
C     -1.726117397     3.2877383282     2.2212863194
C     -1.539590669     4.1537151498     1.1220516875
C     -3.1382461802     -1.3906559714     3.0053779447
C     -2.0261208271     -0.7153354043     3.5699648597
C     -2.0276134307     0.7357310525     3.5642308145
C     -3.1411236763     1.4042820541     2.9943378459
C     -1.5310443857     -4.151499598     1.1548682377
C     -1.7193616396     -3.2772509405     2.2472272701
C     -0.5578366305     -2.6891889164     2.8898697134
C     -0.7731458865     -1.4442892064     3.6126861125
C     0.3515446397     -0.7086204786     3.9822412016
C     -2.975755014     -2.6179374022     2.3260837101
C     -0.2166745831     -4.4720674942     0.7042779076
C     0.7835024203     -3.0541804384     2.4522219403
C     0.9444918404     -3.9291985196     1.2982027423
C     -0.3295476334     4.6379966386     -0.7625850659
C     0.740056364     4.3319135131     -1.5508593722
C     2.0124630242     4.1038771884     -0.948775693
C     2.753751208     3.3382391514     -1.9062431706
C     3.8465194941     2.6439512355     -1.5117225459
C     -1.6408323434     4.2725999506     -1.1888933619
C     -1.8032936671     3.38744344     -2.3068732503
C     -2.9824631738     2.6423292434     -2.3408233183
C     -3.9321207873     2.6437120991     1.1860974598
C     -3.5907596435     3.3014859808     -0.0198623679
C     -2.4351658864     4.1176554459     -0.0166123449
C     -3.9407514509     2.6508690243     -1.2361241734
C     4.9963980146     -0.6910206028     -1.2108280274
C     4.9949815499     0.6880908639     -1.2162789304
C     4.1446080346     1.3794764944     -2.1337842751
C     1.8333628487     2.7810249214     -2.8807009828
C     1.9115528395     1.4200429974     -3.2480988906
C     3.1489089489     0.7099208346     -2.9072923399
C     1.9145027266     -1.4453534224     -3.23677622
C     3.1503903654     -0.7300145289     -2.9016016139
C     4.1474591267     -1.3913856552     -2.1228325961
C     1.8391115363     -2.8035474305     -2.8586292476
C     2.7606369002     -3.3511466112     -1.8798083974
C     3.8519711955     -2.6515165051     -1.4907962224
C     -0.6271202291     2.8255385033     -2.973475188
C     0.596192479     3.4455623906     -2.6987193757
C     -0.5960807936     -1.468776618     -3.4193833155
C     -3.0282403614     1.3770190414     -2.9843675521
C     -1.8461282575     0.7035703079     -3.4350590021
C     -0.5990721178     1.4368530504     -3.4308666457
C     0.6606956331     0.7155439145     -3.508993551
C     0.6622011666     -0.745515699     -3.5032208688
C     -4.1179352297     0.6656171996     -2.3847273998
C     -4.11653637     -0.6965435941     -2.3793463192
C     -3.0253689387     -1.4104180533     -2.9733505778
C     -1.8446431877     -0.7381178783     -3.4293627146
C     -0.621276078     -2.8538573522     -2.9510300983
C     0.6033098889     -3.4691705126     -2.6713879492
C     -4.6510458314     1.4212019971     1.1794075677
C     -4.9608935698     0.7329409172     -0.0312151842
C     -4.6264662135     1.4122023481     -1.2381860293
C     -4.6481168376     -1.4250232025     1.1906508017
C     -4.2119184019     -0.678256223     2.3605689544
C     -4.2133259899     0.6846019279     2.3551894872
C     -4.6235437374     -1.4350910121     -1.2269391228
C     -4.9593680638     -0.7469962626     -0.0253644788
C     -2.4266827009     -4.1262836616     0.0159647736
C     -3.9352771369     -2.6722827257     -1.215090783
C     -3.5839532526     -3.3125476448     0.0062743621
C     -3.9266697874     -2.6459649918     1.2069988821
C     0.74898713     -4.3461267755     -1.5165662988
C     -2.9769958846     -2.6705039294     -2.3198284676
C     -1.7962928516     -3.4128984108     -2.2800000309
C     -1.632020077     -4.2888627929     -1.155064221
C     -0.3199933224     -4.6481784967     -0.725889242


