98

 C     2.526889476     -3.5064454033     -0.8227665427
C     3.6171237374     -2.8476369208     -0.2293828643
C     4.2235155271     -1.7093481869     -0.8254759448
C     -0.08863449     -4.2478438321     -1.7072020059
C     0.728264768     -3.455311511     -2.5578660314
C     2.0626700035     -3.0303121988     -2.1175270656
C     2.6680782476     -1.8595487578     -2.7153658745
C     3.7530824     -1.1678276455     -2.0360901086
C     1.9193361583     -1.1131567471     -3.7317934126
C     2.1943673871     0.2607327153     -3.9598880199
C     0.0315399758     -2.6906504262     -3.5166257033
C     0.6195727982     -1.5223043973     -4.0841493548
C     -1.3868015109     -2.4809151192     -3.4431560918
C     -2.1760674168     -3.1203019514     -2.471686779
C     -1.5229185052     -4.1126370507     -1.6942391448
C     4.7162837243     -0.8598581032     0.2541022215
C     3.2056125973     0.9531265579     -3.2013882058
C     3.9801421606     0.2696740321     -2.2514290608
C     4.476963195     1.0745497031     -1.1877187533
C     4.8119126375     0.4937604105     0.0829258172
C     1.5414813777     2.4499997961     -3.7211333183
C     2.7769426463     2.3068317371     -3.0046424533
C     2.9777073149     2.9677197958     -1.7622918274
C     3.9201696541     2.3600064775     -0.9120451977
C     0.5743019481     3.293880202     -3.2393372884
C     -0.432146487     -0.5801479289     -4.3566047451
C     -0.2053842775     0.8057199186     -4.3453402455
C     1.1630677378     1.1943109708     -4.3011599546
C     2.970423401     1.6857923022     3.0353042152
C     3.8680574808     0.8498488919     2.3556599244
C     4.400989388     1.3770668039     1.143925731
C     3.8364244212     2.5279609478     0.5190121654
C     0.7779654108     4.0025127213     -1.9891809543
C     1.9032935888     3.7837613658     -1.1797745397
C     1.7388520292     3.8688983672     0.2776894931
C     2.7668667031     3.2542019525     1.1087210636
C     2.457823352     2.8926839761     2.4364165259
C     3.750131217     -0.5910323867     2.54529013
C     4.2760858958     -1.413451744     1.5142369777
C     3.7196052852     -2.6925165418     1.2178778792
C     2.6458643623     -1.119732639     3.3514151924
C     2.2108833519     -2.435982077     3.1101750332
C     2.7531414531     -3.2200358997     2.0387003347
C     0.9078272647     2.1297966734     3.9751459562
C     1.9520472701     1.1559550423     3.905913766
C     1.6863430471     -0.2300664847     3.9843805035
C     -0.3773696382     1.7351542968     4.2424633694
C     -0.6892137733     0.3399514723     4.3564842245
C     0.2935086244     -0.6541451565     4.1717773829
C     -1.4744341001     2.4268330247     3.6347931559
C     -2.2930476436     3.6419622572     1.7431210216
C     -1.2383562079     3.4286565204     2.6507503544
C     -0.5078140932     4.2482818912     -1.4288785003
C     -0.6936127893     4.3404932511     -0.0390177453
C     0.4379318941     4.128946904     0.8486102152
C     0.1421290956     3.7365372847     2.2354903449
C     1.1687974698     3.1618982154     2.9924117954
C     -2.0245316046     4.1030485473     0.4112152102
C     0.3383981883     -4.5919289021     -0.3863021265
C     1.6187134088     -4.2292208615     0.0794851099
C     1.7253012105     -4.0479427263     1.4799734677
C     0.5559475035     -3.8647200568     2.2935321855
C     -0.740875354     -4.0646956447     1.7873039649
C     -0.8092270508     -4.6110606225     0.4761980907
C     -3.0345755542     -3.6982040131     0.1667359977
C     -1.950571081     -4.3742714746     -0.3503040771
C     -0.1720255243     -1.9358126029     3.6809005752
C     0.8265455752     -2.8324517586     3.2459102424
C     -2.02822561     0.1757381548     3.8840643608
C     -2.4726442553     -1.0160184539     3.274555117
C     -1.5411757351     -2.1269749562     3.2062569568
C     -1.8202984856     -3.2253679655     2.2930230178
C     -2.9920291306     -3.1537755643     1.5073916139
C     -4.1170071304     0.4038138818     1.9418600482
C     -3.6149412744     -0.9121508301     2.3710417801
C     -3.8670951504     -2.0154591135     1.5459354141
C     -4.7058040717     0.5078368323     0.6626352692
C     -3.9239960994     2.8028165977     0.3564093626
C     -3.4559636594     2.8000169772     1.7131093585
C     -3.5202150204     1.6133121365     2.4950319435
C     -2.5355631352     1.4746222952     3.490371537
C     -4.5054696239     1.6727976352     -0.1675169151
C     -1.4947998396     3.6206424826     -2.282184084
C     -2.7126621814     3.1494641106     -1.7805264718
C     -3.026688335     3.5700327019     -0.4565429665
C     -1.6533803305     -1.1388960999     -3.880887148
C     -2.671331488     -0.3394201602     -3.3012891756
C     -2.4732976085     1.1044736203     -3.2611644509
C     -1.2454150468     1.673638759     -3.810881124
C     -0.8214310808     2.9439709166     -3.33898527
C     -4.2008518218     1.2278184474     -1.5156401574
C     -3.2413093187     1.8930424558     -2.3106318576
C     -4.4197457683     -1.8575590071     0.2222158546
C     -3.7889000704     -2.793168391     -0.6653696886
C     -3.326583399     -2.3982865876     -1.9412601822
C     -4.7612245838     -0.614083553     -0.2282912319
C     -4.3664045266     -0.1930778468     -1.5538268381
C     -3.5783624824     -1.0133467293     -2.3794997736


