98

 C     1.5294924939     2.2691800493     3.4992430109
C     2.158848046     3.0573268992     2.5018078162
C     3.4363009024     2.6189707426     2.0592674643
C     3.8711167336     2.8701112305     0.7132174112
C     3.1215202466     3.6641598053     -0.115913746
C     0.103211252     2.2005647393     3.5833114109
C     -0.7427600727     2.9376541956     2.7541676809
C     -0.1447048779     3.7663679319     1.7089364234
C     1.2995203622     3.8258811573     1.5943865384
C     1.8381695274     4.1939905813     0.3389153171
C     -2.3406144091     3.7890595049     0.6124307317
C     -0.9603347646     4.0827378536     0.5629451203
C     -3.7038858991     0.5979245316     2.7569940273
C     -2.5002951948     1.1695121688     3.1897146589
C     -2.1227155481     2.4944742368     2.6891233951
C     -2.9409808135     3.094008274     1.7198430202
C     4.3395698578     1.2764661349     -1.1401598074
C     3.5738335435     2.151953269     -2.033291749
C     4.5242281691     1.6946606461     0.195382876
C     3.0430143715     3.3599848263     -1.5079235687
C     1.777174004     3.8894004161     -1.9619834021
C     1.1094752923     3.3313207814     -3.0223238758
C     1.651687805     2.1503187372     -3.6395416617
C     2.8617338637     1.5715590023     -3.1692850775
C     2.9945209838     0.1939852269     -3.4049228051
C     -0.3773795943     4.2423688176     -0.7509841009
C     1.0223063393     4.3599793245     -0.8134888807
C     -0.3244670016     3.2427280753     -3.0046656512
C     -1.0843007533     3.7112420693     -1.9135735579
C     3.8431005666     -0.639906138     -2.5944550628
C     4.4438707585     -0.1617559817     -1.4044803289
C     4.6377985029     -1.1118793771     -0.3028494884
C     3.3391198042     -1.9756804356     -2.7078093947
C     3.545734482     -2.8669631041     -1.6852283416
C     4.2352256159     -2.4605269062     -0.5024325481
C     0.1624009811     -4.2972383937     -1.3469181048
C     2.489300317     -3.8030980435     -1.3579591237
C     1.2474102511     -3.7678713346     -2.0496461158
C     0.5351298299     1.3449269265     -4.0312085969
C     0.5921422573     -0.0659350854     -4.0360716556
C     1.888908706     -0.6044152543     -3.8714353883
C     2.0692430555     -1.9344381825     -3.4135443609
C     -0.388035856     -2.2074355908     -3.2283808636
C     0.9738198004     -2.7353524531     -3.0527042897
C     4.6612080103     -0.6293204415     1.0749254497
C     4.6283619249     0.7629074568     1.2900167389
C     3.6440350771     -3.2368642249     0.5652382152
C     3.5450932789     -2.7349821426     1.8331481906
C     4.1205321592     -1.4496090468     2.1254237661
C     2.5459450206     -4.0278266157     0.0465716964
C     1.3623422938     -4.2217178483     0.8120829837
C     0.2176708893     -4.5232452936     0.0656148396
C     3.3636860749     -0.8932693552     3.1892627673
C     3.2541799587     0.5059741813     3.3506847798
C     3.9547422061     1.3351581273     2.4291919018
C     2.0501029059     1.0054490353     3.895943696
C     1.182215673     -3.5457437017     2.0958314949
C     2.3291497905     -2.9016002296     2.6164368641
C     2.2225509516     -1.7715497449     3.4478652731
C     -0.1384681989     -3.0868512184     2.5074140496
C     0.953604777     -1.2544892005     3.812546402
C     0.9264236549     0.1220235904     4.1572951297
C     -1.0949133421     -4.3212462964     0.6011391603
C     -1.3078388864     -3.5473038804     1.7636781862
C     -0.2571523087     -1.9043929569     3.3384713474
C     -2.6006524129     -2.8810102092     1.9116828139
C     -2.6960870805     -1.6873779775     2.7349108009
C     -1.50942871     -1.1532103837     3.3671002253
C     -1.4759280782     0.2639840649     3.6610360338
C     -0.2544612372     0.8652845935     4.0149943965
C     -3.8108424066     -0.822919297     2.5555973505
C     -4.6713566183     -1.8828068829     -0.7991243099
C     -4.6108654931     -2.0986383808     0.6410541549
C     -4.7714732862     -1.0287847136     1.4964049721
C     -4.91129056     -0.6232422205     -1.2997533785
C     -3.5824911971     -3.0664834492     0.8981020251
C     -1.9731109993     -4.1888353433     -0.5250430837
C     -3.6790335457     -2.721997024     -1.4169878182
C     -3.1871437527     -3.5815037355     -0.3834894195
C     -0.6693467486     2.015396419     -3.6527720153
C     -1.8439269925     1.3017756705     -3.3520811856
C     -1.8368326497     -0.149995895     -3.4231604783
C     -0.5762549199     -0.8527408569     -3.6873175493
C     -4.0490123918     -0.1059121408     -2.3420879293
C     -2.9540592849     -0.86378964     -2.8619182926
C     -2.7900383651     -2.2379934743     -2.4183123731
C     -1.4936317643     -2.8901359026     -2.5707628105
C     -1.1887970788     -3.9605818771     -1.6964109974
C     -4.2403095372     2.6838641659     -0.1614170237
C     -3.0828920477     3.4425502659     -0.5616053888
C     -2.4128866677     3.1834642065     -1.7820702149
C     -4.7156659792     1.6710698315     -0.9779732195
C     -3.9685242372     1.3100570085     -2.1651428007
C     -2.8247670722     2.0203651398     -2.5633630231
C     -5.1821784435     0.262640877     0.9784095923
C     -4.5639998968     1.2674688361     1.8099406975
C     -4.1580078348     2.4757656941     1.2653499612
C     -5.2554285581     0.4613405628     -0.4027579996


