98

 C     -3.569133306     -2.6249621336     0.4207869212
C     -2.5488698663     -3.6447774173     0.1226899993
C     -4.1616823378     -1.9385567488     -0.6501463517
C     -2.2071045721     -3.8850594749     -1.2175126078
C     -0.1896817851     -4.3891573094     0.7064498748
C     -1.5531967499     -4.0094417931     1.1170752202
C     -1.7495386743     -3.5066318871     2.4116798759
C     0.8536062358     -4.2450916593     1.6293964557
C     0.6267360728     -3.6446758526     2.9105531837
C     -0.6404410308     -3.2752545751     3.2867442523
C     0.1869579319     -4.3926732905     -0.6996058906
C     1.5510960939     -4.0170988161     -1.111956935
C     -0.8560960569     -4.2511029833     -1.6232043297
C     1.7482606658     -3.5205285297     -2.4088394612
C     -2.746760987     -2.484951471     2.7021357933
C     -3.5938075515     -1.9559860462     1.7144434092
C     -4.0260585002     -0.5522912788     1.830129739
C     -2.1976468372     -1.6525852675     3.7290999436
C     -2.5507096338     -0.3283561213     3.7996269538
C     -3.5250449349     0.2056622418     2.905867251
C     -0.8404791075     -2.0342262702     3.9924707311
C     -4.4689597856     0.186174439     0.6478345039
C     -4.5884024681     -0.5533246662     -0.539556275
C     -3.2455123971     1.6205408482     2.7780828588
C     -3.6274364753     2.3528369237     1.6439038029
C     -4.2751516917     1.6392140395     0.5476190106
C     -2.8619590922     3.5257049152     1.3863086223
C     -2.0164971095     1.8897698424     3.4651358145
C     0.3165900694     2.6406355111     3.1427031878
C     -1.1188893442     2.8828154392     3.0316406741
C     -1.6337452808     3.7812713572     2.0625386251
C     2.5306233651     3.0783226076     2.1941625897
C     1.195160789     3.4783545067     2.3369543191
C     1.7378412235     -2.797187039     3.2459635405
C     1.5447125994     -1.4851562593     3.7492967527
C     0.1946629606     -1.0739369749     4.1147663246
C     -0.1729511779     0.3498740176     4.0945789233
C     -1.5407503557     0.6673904865     4.0461016708
C     2.5375648287     -0.4683960964     3.4291087301
C     2.157784004     0.9524798431     3.4218093461
C     0.7892379334     1.3704936271     3.6644398693
C     3.0064292769     1.8545046785     2.7432434288
C     -2.6964602765     4.0131664503     0.037046799
C     -3.2759950885     3.3348798794     -0.9994901591
C     -4.148171437     2.2098734513     -0.7446651764
C     -4.0756756853     1.3896744715     -1.9066216333
C     -4.3525269135     0.0520389134     -1.8209900634
C     -1.3758168143     4.5528199486     -0.1227642882
C     -0.6364145004     4.3436612852     -1.3213590045
C     0.7534839823     4.4595892499     -1.1856967547
C     0.6481206957     4.348570102     1.2882657553
C     -0.7415835326     4.4661717212     1.1520690747
C     1.3878635442     4.5510229271     0.0887279309
C     -2.7558511002     -3.0890449586     -2.2709807306
C     -3.7045840225     -2.1353317815     -1.9935600143
C     -3.659964998     -0.8708942497     -2.6752711801
C     -2.998851242     1.8468782632     -2.7649274661
C     -0.7824651768     1.3549907463     -3.683895212
C     -2.1516977464     0.9403586139     -3.4393559716
C     -2.5338268487     -0.4799086784     -3.4401612199
C     1.5463629355     0.6463078413     -4.0623272306
C     0.1780391742     0.3308297226     -4.1093524379
C     -0.1919268397     -1.0924476265     -4.1230435459
C     -1.5426564549     -1.4997587918     -3.7557060848
C     -1.73795182     -2.809150914     -3.2463795026
C     -1.184898274     3.4695680499     -2.3660685922
C     -2.5210194716     3.0724050206     -2.2214508257
C     1.6445066485     3.7690633597     -2.0930204828
C     1.1281629724     2.8670386345     -3.0580109022
C     -0.3077151533     2.6267250927     -3.1679732779
C     2.0241309111     1.8705437126     -3.4869595567
C     -0.6282403785     -3.6569220816     -2.9070875438
C     0.6395441323     -3.2913201402     -3.2849606057
C     0.8416323214     -2.0538697616     -3.9963508582
C     3.5298960102     0.1865199019     -2.9199797202
C     2.5546703855     -0.3499653907     -3.8112793277
C     2.1994377477     -1.6732788169     -3.7347344181
C     4.0296639702     -0.567342172     -1.8407874784
C     3.5951001125     -1.9697775443     -1.7186962224
C     2.7471742558     -2.5018449449     -2.7039650304
C     2.8723031582     3.5145655699     -1.4156259639
C     4.2823706036     1.6295878249     -0.5683142447
C     3.6358357665     2.3392701785     -1.6678532085
C     3.2526995786     1.6024289124     -2.7986732535
C     4.5920090963     -0.5584725176     0.5288808016
C     4.4737821317     0.1757863733     -0.6618826985
C     4.3571444779     0.0531296618     1.8075355689
C     4.0824888054     1.3915955319     1.8870386104
C     4.156338096     2.206354735     0.7213483264
C     3.2860201843     3.3339512616     0.9710184334
C     2.707620645     4.0084734604     -0.0686054692
C     2.7552722606     -3.0832136727     2.2718601916
C     3.7055826028     -2.1323539695     1.9900962884
C     3.663054567     -0.8647383854     2.6660247498
C     3.5693242856     -2.6327915401     -0.4219919093
C     2.54737414     -3.6495415663     -0.1192418912
C     2.2052157184     -3.8831338398     1.2220409665
C     4.1630009169     -1.9424728873     0.6457973122


