98

 C     3.7919511687     -2.00975214     2.0639819455
C     3.5507453685     -0.8590683792     2.8394373321
C     4.2539168935     0.3065567694     2.4148397868
C     3.7303179211     1.6205404826     2.6977749479
C     2.5981483008     1.7419918735     3.4603253983
C     2.7922170532     -3.0582428657     2.0004493012
C     0.5337042816     -3.7585947409     2.2120025022
C     1.565036595     -2.9446352323     2.6998545907
C     1.2207062437     -1.7252124498     3.416436872
C     2.2637959572     -0.7243873533     3.5443897632
C     1.8660236416     0.5710551146     3.8998778979
C     0.6353218864     4.1428978943     1.4927200412
C     1.8187423949     3.5969279303     2.013341051
C     1.6629720293     2.7905196901     3.1773243805
C     0.3722712693     2.3245830724     3.5746323606
C     -1.9766325005     1.940162842     2.9375395616
C     -0.8093970476     2.8041332634     2.9944827938
C     -0.6412258729     3.8467918758     2.0407825779
C     -4.1290801497     1.4577117071     1.8735021231
C     -3.0761046953     2.3554001246     2.0825670115
C     -0.5504579783     0.0279682398     3.7584014822
C     0.4902196844     0.9406023756     3.9708021617
C     -3.4319323367     -2.5901316013     2.0468935382
C     -2.5870601847     -1.8036259527     2.8759378683
C     -2.8964400891     -0.38228162     2.9961967059
C     -1.8570513201     0.5557312089     3.3439778386
C     -4.0636388078     0.1141556311     2.3583257837
C     -0.1815464501     -1.3626353879     3.5598756513
C     -0.8315101881     -3.4913786894     2.5201085977
C     -1.22502197     -2.2802561196     3.1236560663
C     2.9307182438     3.3636165803     1.1014772787
C     3.9430372119     2.4757220821     1.5437122767
C     4.7302478102     1.7125064584     0.6299977644
C     2.7165486399     3.5097357784     -0.3408759187
C     3.5750927141     2.8107634075     -1.2053209266
C     4.5758431229     1.9001632902     -0.7267153261
C     0.4545147694     4.3387810644     0.0605485271
C     1.3963813691     3.8843007918     -0.8665353616
C     0.9023661729     3.354376427     -2.1474111797
C     1.8076994212     2.5444497096     -2.9428893581
C     3.1202377158     2.3141243443     -2.4823784706
C     1.2679049452     1.5721774285     -3.834308697
C     -0.9399913528     4.3163965957     -0.2143694898
C     -2.7916101452     3.3937292237     -1.4188171336
C     -1.4399075692     3.8095293249     -1.433244302
C     -0.5171893553     3.2493653189     -2.3859537846
C     -1.0397086602     2.1883094439     -3.2582557256
C     -0.1387192512     1.3720601453     -3.9167849092
C     -2.8527620048     3.3816551647     1.0533115785
C     -1.6237558508     4.0409210104     1.0147805391
C     -3.5223629778     3.2679828318     -0.2021179233
C     4.2508064202     -1.5863641432     -1.9673986291
C     4.8430163094     -0.5387053469     -1.1751287057
C     4.6714002879     0.7834695234     -1.644856954
C     3.8031833028     1.0766656558     -2.7494398816
C     1.8963147953     0.3124345507     -4.0295898178
C     3.1536409274     0.0312325952     -3.4659693846
C     3.3979455861     -1.3051630817     -3.0533227079
C     4.969258189     -0.7506373366     0.277945533
C     4.9205249763     0.3648023656     1.1489651251
C     3.7536974843     -2.8008219885     -1.3505524326
C     3.9061942415     -2.9979904531     -0.0051598751
C     4.5012304513     -1.9724220642     0.8320576122
C     0.5929742864     -4.3401717536     0.8957218173
C     2.8652576451     -3.673638776     0.7228696446
C     1.6919717953     -4.145056372     0.0630406049
C     0.8527230217     -0.7034772244     -4.1095955905
C     1.0033652216     -1.9786397772     -3.4962160301
C     2.3143386238     -2.3047394337     -3.0739156705
C     2.5281444796     -3.2111669609     -2.0266926823
C     0.0867551529     -3.5693177081     -1.7970700445
C     1.4419153362     -3.8137948161     -1.3358379142
C     -0.3815483318     -0.0551931044     -4.0919129793
C     -1.5467627245     -0.6711499183     -3.6031294557
C     -1.454052349     -1.989950039     -3.0190297778
C     -0.1426832257     -2.6095702443     -2.8657520751
C     -3.7709375865     -1.6959895483     -2.2451220944
C     -2.5884227547     -2.4750754903     -2.2552449099
C     -2.377785578     -3.4419967252     -1.1888741651
C     -1.0322175881     -3.9432199339     -0.9345981477
C     -0.7353961569     -4.3918844781     0.3724650058
C     -4.4505113616     1.7717141457     -1.7390058051
C     -3.2962215426     2.382581091     -2.3321478833
C     -2.3959484803     1.659906562     -3.1197574679
C     -4.7251266362     0.4314900118     -1.9811029074
C     -3.7977145968     -0.3443813373     -2.7622500856
C     -2.6477600335     0.2254404034     -3.3194558824
C     -5.324627977     0.098753898     0.3735017709
C     -4.9188321382     1.4578088296     0.6437106908
C     -4.5702938926     2.2982968242     -0.3977993848
C     -5.2395723739     -0.408112884     -0.9285497927
C     -4.4362787183     -2.5623450573     -0.0700828577
C     -4.5081387263     -2.0231312209     1.2835761529
C     -4.8696195934     -0.7094771712     1.4834555368
C     -4.706503894     -1.7397405135     -1.144944776
C     -1.6102729846     -4.0739421868     1.4637290707
C     -3.3265036153     -3.4678960642     -0.1282106796
C     -2.8724017418     -3.6330272887     1.2262714922


