98

 C     2.7820424183     3.6534681919     0.5457754007
C     3.4394885393     2.6099368317     1.2284322482
C     4.2576721906     1.6763662333     0.4486001815
C     4.5108479939     0.3392267496     0.9703708718
C     4.6911353219     -0.7596534779     0.0813619216
C     4.0111428631     0.0141339942     2.2414548409
C     1.5842356095     2.7593895223     2.948080979
C     2.8746854907     2.2190032363     2.5109297768
C     3.2720173657     0.9630134422     3.0313264132
C     0.8242221386     2.0330617002     3.8920734698
C     1.260508914     0.7573473774     4.3800048558
C     2.4412940166     0.2183222172     3.9242641028
C     0.8495934131     3.6925291087     2.1222844618
C     -0.6211290006     3.6965232219     2.1248761582
C     1.5265182185     4.1969853378     0.9931975397
C     -1.2908060562     4.2572239838     1.0142849929
C     3.5096087993     -1.3046639811     2.5433721901
C     3.4258709959     -2.3102266615     1.5635039574
C     4.1358469215     -2.0435821838     0.3581752082
C     2.2859978354     -3.2204773257     1.5668038879
C     1.9696248107     -3.9183736701     0.3147692748
C     0.6953785226     -4.4857454335     0.1737597567
C     2.51105924     -1.1813808234     3.5622474836
C     1.3860710327     -2.011977754     3.5965488393
C     1.2806154647     -3.083015012     2.5937913146
C     -1.1744738383     -3.1608555388     3.0669078627
C     -0.0317224553     -3.6734257021     2.3836594961
C     -0.3026558543     -4.3427950842     1.1800010438
C     -1.0727903531     -2.0567376679     3.960218427
C     0.1764094588     -1.4604099901     4.2313182429
C     0.1313280085     -0.0907316201     4.5959220041
C     2.6760965905     -3.571886304     -0.9305640747
C     3.7343047051     -2.6455124531     -0.8864545288
C     0.0100296574     -4.5398471033     -1.1064110959
C     0.6468810951     -4.1149656209     -2.2485049106
C     2.0046815978     -3.6599128754     -2.1772742854
C     -1.8850506604     -1.8535445033     -3.6581504777
C     -0.077531966     -3.3459743759     -3.2153069195
C     -1.4447369929     -3.018142755     -3.0026596123
C     -2.4684298691     -3.1135728467     2.4387249712
C     -2.6454784536     -3.4916755854     1.0803431665
C     -1.5869314106     -4.2195268068     0.5165794521
C     -1.3799741352     -4.2503573037     -0.8888274271
C     -3.2176600278     -2.6311367256     -1.2489332007
C     -2.1323907327     -3.4293837656     -1.7873001394
C     2.1324410607     -2.6159464612     -3.1573213959
C     3.0380506707     -1.5557431301     -3.0063026563
C     3.9727536957     -1.7097409215     -1.9428853563
C     4.5995883901     -0.5703500179     -1.3452716478
C     4.3476444419     0.6818654115     -1.8441913936
C     0.8480783269     -2.3943770747     -3.7559591005
C     -0.9454959563     -0.8967668155     -4.2202188115
C     0.4390838398     -1.0869428403     -4.1431816051
C     1.3014409516     0.0653917822     -3.9224087957
C     2.6496437639     -0.2060086907     -3.4449840678
C     3.3843007071     0.8669340613     -2.9231498065
C     2.7673223449     3.7124420645     -0.8946018522
C     4.2750181503     1.8209422452     -0.9647158388
C     3.447447451     2.7784721748     -1.6254879096
C     -1.5211582165     0.4024882763     -4.1454463988
C     -0.7459665164     1.5467641166     -3.8411272441
C     0.7045567471     1.3799669448     -3.7494590451
C     1.469650218     2.4389502228     -3.1154220854
C     2.8102210671     2.1634864595     -2.7741544673
C     1.4897633248     4.1776217974     -1.3539214303
C     0.7962347763     3.5427426459     -2.4150612392
C     0.8036725302     4.6280029118     -0.1767800753
C     -0.5615408025     4.6705884594     -0.1648418026
C     -1.2928941905     4.2988477129     -1.3348381412
C     -2.800857956     2.5046841241     -2.8367815355
C     -0.6547997144     3.631276008     -2.4243355471
C     -1.4224051857     2.6618406001     -3.1804981743
C     -4.1861886843     2.0727358435     -0.9703590278
C     -3.3389718722     3.0559616132     -1.6270014042
C     -2.5881407503     3.902893597     -0.8654955031
C     -4.4826045388     0.6500944128     0.9233707064
C     -4.1425120862     1.9211895057     0.4504819685
C     -2.8590531985     0.2275495067     -3.649482695
C     -4.6076559234     -0.479693163     0.0508004326
C     -4.3777834082     -0.377988564     -1.3281209286
C     -4.2912782286     0.9577441106     -1.832206613
C     -3.4766597191     1.2526180147     -2.999958866
C     -3.1497111627     -1.9747569614     2.9725951854
C     -3.9985621626     -1.2564915389     2.1540391969
C     -4.2263021551     -1.6569488022     0.7883505507
C     -3.5055171368     -2.7085233986     0.1890255198
C     -3.688042032     -1.4764854256     -2.0018347227
C     -3.0260843543     -1.1502244489     -3.2162980267
C     -1.0392701056     0.7095637441     4.3264298499
C     -2.246281941     0.1385644027     3.8850010272
C     -2.288727939     -1.2820937904     3.8744627421
C     -2.5610439449     3.7903944256     0.590871644
C     -3.2386711183     2.7413299324     1.2578453482
C     -2.6512741259     2.2195383515     2.4721128677
C     -1.3660436721     2.7362062863     2.9088474207
C     -0.611668891     1.9878115262     3.8521180473
C     -4.0239487424     0.1829073423     2.2094206421
C     -3.0928434506     0.909291213     2.9717739397


