98

 C     -1.8858175768     -1.336793617     -3.8428653026
C     -2.0226872604     -2.5286478341     -3.1167201513
C     -3.1965171113     -2.6197246151     -2.3138194475
C     -2.7211162685     -0.2027204716     -3.6008306503
C     -3.7074358464     -0.1992813511     -2.6051588696
C     -4.0122541222     -1.4796391421     -2.0557079346
C     -0.8115209649     -3.259652727     -2.7555330792
C     -0.9097106042     -4.155837604     -1.6675655542
C     -0.5968046536     -0.8527177648     -4.2471363755
C     0.5993197633     -1.500576286     -3.8742045548
C     0.5035758228     -2.7318510671     -3.0856414492
C     1.6450347376     -3.1547059363     -2.2922852093
C     2.8326047207     -2.3978590699     -2.3961191486
C     1.7456711582     0.7685717547     -4.0677562116
C     1.8076441383     -0.6842774673     -3.8715768882
C     2.9226810774     -1.215182043     -3.1997306024
C     2.7570241414     1.5697834732     -3.469814422
C     3.7807529125     0.9925574084     -2.6525189407
C     3.902454014     -0.3671290713     -2.5775219408
C     -0.6808742115     0.5741585571     -4.3917875082
C     0.212420241     2.7149056587     -3.8039339501
C     0.4551801239     1.4001710777     -4.2761226523
C     -4.4974474538     0.8558840908     -0.5361444081
C     -3.8949833471     1.0178569071     -1.7996252701
C     -3.0536180007     2.1826407403     -2.0013138852
C     -2.1330763534     2.1685265799     -3.1468973034
C     -1.9609780002     0.9800209638     -3.8947181893
C     -1.0420518768     3.0651250974     -3.1956200142
C     1.4941767727     -3.9806052112     -1.098910871
C     0.2105375088     -4.4942635265     -0.8506210561
C     3.7592021992     -2.2798474114     -1.2965097407
C     3.5410057896     -2.9375004719     -0.0661508595
C     2.4142833668     -3.8461769687     0.0363293762
C     4.0297604924     -2.2696522895     1.0888139548
C     4.4462057067     -0.8973748576     1.030159395
C     4.5443031225     -0.1941265242     -0.1863228548
C     4.347839502     -0.975813224     -1.3554345157
C     3.3817213748     -2.4422680365     2.3590690402
C     2.3293329401     -3.3197274462     2.4737715996
C     1.9097665815     -4.0944203609     1.3406305612
C     0.5264793902     -4.4016045889     1.5578752753
C     -0.2831457904     -4.6709096347     0.4967224327
C     3.3410520339     -1.1906401708     3.0527256817
C     2.2007616491     -0.8247487047     3.8163172122
C     2.0336413189     0.5535643694     4.0098819501
C     3.9685370821     1.8169955555     -1.4650292195
C     4.231905576     1.2454319293     -0.2104954589
C     3.6948637713     1.9118164504     0.9665828603
C     3.6399757805     1.1403849079     2.2102064435
C     4.0142926022     -0.2317922999     2.2237831292
C     2.7620579434     1.5252283577     3.2374996547
C     -3.1891938809     -3.4216224904     -1.1130697911
C     -2.0887849935     -4.1799019685     -0.81617929
C     -1.6699266983     -4.3077475571     0.5484853989
C     0.0227876892     -3.6217722053     2.6683852819
C     -1.4595059793     -1.7973853174     3.3551130361
C     -1.2661415984     -3.0493376476     2.6443660103
C     -2.1808441224     -3.4636506544     1.5708037809
C     -2.7560844241     0.2842379684     3.5500172552
C     -2.6889638025     -1.0538732294     3.0999303204
C     -3.6063837364     -1.4573202975     2.0316962195
C     -3.342042142     -2.6517008346     1.2521979249
C     -3.8845807964     -2.7382021807     -0.0640441914
C     1.0172178263     -1.6946836691     3.846540613
C     1.1444625727     -2.9529843332     3.2419988772
C     0.7593106035     1.0994486628     4.320387967
C     -0.4159201626     0.282524588     4.3180819355
C     -0.3202887558     -1.1291811867     3.9692368773
C     -1.6311201957     0.9563915771     4.1091171456
C     -4.4921824777     -1.6000024843     -0.6981130162
C     -4.7306550673     -0.4724009271     0.0313032478
C     -4.4141477858     -0.4467528154     1.4270104232
C     -2.7833143232     2.5233013916     2.8317322525
C     -3.5139382834     1.286666718     2.8426530364
C     -4.2619755374     0.9337528137     1.7611496717
C     -1.5378403489     4.0987932855     1.5092504973
C     -2.6943753889     3.3089029996     1.6352927598
C     0.7363145887     2.4608202896     3.8678442036
C     -0.4388814526     4.0013609557     2.4211116812
C     -0.4757296344     3.0818185683     3.4975996567
C     -1.6731845639     2.3551926092     3.7029096468
C     3.1379134056     2.9617084029     -1.6140345387
C     2.5283634819     3.582065715     -0.5055252154
C     2.8426676046     3.0728808541     0.8214552484
C     0.7690773551     4.1928984778     1.659190117
C     1.9575620294     3.4593624114     1.9318218017
C     1.9406004905     2.6853239343     3.1156881258
C     0.6262872483     4.1749331556     -2.0171186923
C     1.2279034084     3.4274980215     -3.0832168084
C     2.4663702533     2.8598717604     -2.9056846602
C     0.4026276382     4.5445213202     0.3250854341
C     1.262690278     4.2814662039     -0.7564295834
C     -4.2283082858     1.7340842828     0.5395527218
C     -3.3618577573     2.8368836009     0.4104223044
C     -2.7977271176     3.0954068952     -0.9041819336
C     -1.0221448816     4.4392709743     0.2114135982
C     -1.6328672324     3.9804377656     -0.976092343
C     -0.7906809607     3.9656275123     -2.1126990861


