98

 C     0.3552867846     4.296944553     -1.5874078071
C     -0.4753640506     4.3750992439     -0.4660300669
C     -1.9139409161     4.1009847759     -0.6508781455
C     -2.724464787     3.721386996     0.499984167
C     -3.8695457835     2.9001088177     0.338863045
C     -2.0858166575     3.6432521269     1.7558481528
C     1.7646151464     3.9950757981     -1.4849228077
C     2.39888739     3.7431150663     -0.2489399692
C     1.5969813653     3.8539663818     0.9597964577
C     0.1688596473     4.2015896485     0.8421104678
C     -0.6781289831     3.9257260223     1.9253796979
C     3.3069882558     2.4895297043     2.1245883579
C     2.0695190951     3.1972303867     2.1603196229
C     4.0385471391     2.3143577643     0.9283729032
C     3.6112960777     2.9146952893     -0.2823004656
C     3.9875783286     2.253510781     -1.4853599721
C     -2.4548721503     2.6563159994     2.7179569405
C     -3.4448631698     1.6838095074     2.4739692773
C     -4.243474665     1.912413556     1.3174935693
C     -4.8269915122     0.8067207605     0.6162073683
C     -4.7450032248     -0.4587396566     1.1346764438
C     -1.2929314389     2.3361923024     3.4922051222
C     0.28388964     0.7173822538     4.2453811776
C     -1.0583117202     1.0181820243     3.9535999367
C     -1.9813843419     -0.0536149195     3.6095093561
C     -3.2330944815     0.312269526     2.965742855
C     -3.9748355908     -0.7095815759     2.3369461329
C     1.1229705182     2.7975704615     3.197490874
C     -0.2201180628     3.1769579502     3.0604818717
C     1.3449129601     1.6145574841     3.955364086
C     -3.5717740223     -2.3497932892     -1.7969235586
C     -4.3246531343     -1.3678070891     -1.1429922306
C     -4.6000148594     -1.5798787959     0.2531511242
C     -3.9187336211     -2.5977025111     0.9755299784
C     -2.0587559063     -4.1387451676     1.0291763809
C     -3.151797211     -3.5898394382     0.3128876239
C     -3.0646685573     -3.501069346     -1.1155700275
C     0.7921645197     -0.6354609526     4.1029871387
C     -0.0296288705     -1.6673290543     3.6568732487
C     -1.4692535413     -1.4068484424     3.5032497482
C     -2.2537668469     -2.4023224257     2.8201202217
C     -3.4927069815     -2.0419128616     2.2517648414
C     -1.6019759092     -3.542201092     2.2572470678
C     -4.2822133821     -0.0094732789     -1.6765613394
C     -4.6913756935     1.0291703644     -0.8178955083
C     -4.2055823473     2.3669938309     -0.9613274922
C     -3.3404056768     0.3196904033     -2.760491729
C     -3.0129267894     1.6651647718     -2.9607658358
C     -3.4290501588     2.6983384509     -2.0448733955
C     -1.5991767086     -2.9649882646     -2.853276897
C     -2.6174258269     -2.0008564826     -2.8421555443
C     -2.3807233468     -0.666464754     -3.2411713402
C     0.7423954758     -3.4706364166     -2.7513343726
C     -0.2752558419     -2.6276086743     -3.2444697244
C     -1.0444743694     -0.2939677684     -3.6883762412
C     -0.915703453     -4.6688214115     0.3384451776
C     -0.8153496732     -4.5336226816     -1.0785212888
C     -1.8717268202     -3.9093472002     -1.7828977367
C     0.4848043618     -4.3754487922     -1.6210956955
C     -0.1144792642     3.7224002442     -2.8247670399
C     -2.3578926137     3.6567776076     -1.9169562674
C     -1.419313288     3.3374164193     -2.9490505931
C     2.1149177799     3.237070429     -2.6493271781
C     0.9188338145     2.8973473087     -3.3675560137
C     3.1642634787     2.3497073498     -2.6393681893
C     0.0438370977     -1.2661535586     -3.637120001
C     -0.7250606607     1.1134582338     -3.8085713257
C     -1.7394282859     2.0502614984     -3.5097956102
C     2.0729920962     -3.0283109272     -2.6689801973
C     2.4603309961     -1.7270224619     -3.067628133
C     1.4336007335     -0.8300821568     -3.5873163705
C     1.7398898985     0.5902827339     -3.6718367778
C     0.6607243453     1.5659660172     -3.7832089653
C     3.0036236993     1.0450499863     -3.2233243188
C     2.6607702162     -3.6756058667     -1.5042830671
C     3.6482782128     -3.0596649041     -0.8022679106
C     4.2465770867     -1.8682139295     -1.3203224169
C     3.6755620691     -1.2033030593     -2.4472714222
C     3.9236590519     0.1811808821     -2.535250087
C     0.2327763017     -4.4553490704     1.1597206663
C     1.5165198162     -4.2734959744     0.626717727
C     1.635085872     -4.3949852892     -0.8005108779
C     2.1834267387     -0.5788252346     3.8020879051
C     2.8111724007     -1.5273651547     2.9536954586
C     2.0298282097     -2.6692458016     2.5382430358
C     0.6386943546     -2.7658016311     2.9587699426
C     -0.1938493616     -3.7096473643     2.3228589015
C     3.5874370733     -2.9720459962     0.6582981475
C     2.4627859862     -3.4348948649     1.3643693958
C     4.2784881281     0.3407654121     2.1476271873
C     3.5089825537     1.2832785829     2.907452727
C     2.5267926567     0.8171941148     3.7445552251
C     4.2952923656     -1.7911459877     1.0176184267
C     3.9497781476     -1.0556316136     2.1676199142
C     4.5397124366     0.9147902589     -1.4754421561
C     4.7339292882     -1.1280220957     -0.1987753544
C     4.8742342934     0.279859322     -0.2540009649
C     4.6722106548     1.0014958813     0.9496753345


