98

 C     -0.5545273898     3.8917108407     1.9377669523
C     -1.520117969     4.2258673393     0.9699738804
C     1.5565162285     2.6189816183     3.3823632869
C     0.2098303711     2.268105313     3.6643171867
C     -0.8868871634     2.8650608909     2.9225987777
C     0.0334987449     1.0036291467     4.2596941826
C     1.0883741645     0.0353551287     4.2999925307
C     2.3578013519     0.2962679258     3.7768700207
C     2.6118071033     1.6648688872     3.4686261413
C     -1.2004803099     0.2926937869     4.1492779037
C     -2.2862113012     0.8122303559     3.4325775947
C     -2.1473828848     2.1505886492     2.8363450614
C     -3.101432758     2.5355356241     1.8159764923
C     -2.7648912276     3.5563597631     0.8925980039
C     -4.0806830568     1.6019727528     1.3822782981
C     -2.9901986034     -1.5999828364     2.9910834951
C     -3.2599229224     -0.1586689062     2.9238913446
C     -4.1711667965     0.2941002174     1.9509053983
C     -3.5483688347     -2.4336593361     1.9809901263
C     -4.2934848048     -1.8852729535     0.8896710098
C     -4.6629630984     -0.5725660966     0.9122827932
C     -0.9159929442     -1.1207632886     4.212203636
C     -1.1337552246     -3.2575638829     3.1587505
C     -1.7661513164     -2.0707151951     3.6154615294
C     4.0614411181     -0.3643435254     2.1417565542
C     3.0527959339     -0.7692957167     3.0386110108
C     2.4127979125     -2.0509078644     2.8052489214
C     1.1487428388     -2.318319731     3.5017016931
C     0.5034219482     -1.271380458     4.2102381829
C     0.2945384538     -3.3477667703     3.0549865932
C     -4.5062533549     1.5375003733     0.0030609848
C     -3.9818442114     2.4295357219     -0.9658157325
C     -3.1791163941     3.4925663471     -0.5021923842
C     -3.70691933     1.9120331774     -2.2564724597
C     -3.8465933772     0.5074018307     -2.5234025557
C     -4.2976421838     -0.4064096951     -1.5443020432
C     -4.7484986129     0.1660234731     -0.3195536611
C     -2.5718758997     2.3758772065     -3.0011302163
C     -1.7083932446     3.3811447773     -2.513651427
C     -2.1190494436     4.0137896507     -1.2991772843
C     -1.1501340107     4.5714337921     -0.3933668905
C     0.1591796688     4.6241824431     -0.7614894011
C     -2.0612342834     1.2871330894     -3.7742540028
C     -0.2511828142     -0.1169591926     -4.4155166072
C     -0.6844725653     1.1807875759     -4.081838842
C     0.2674027242     2.1634783139     -3.5606180565
C     -0.2729381477     3.2902908446     -2.8269495781
C     0.6112516075     4.0065995673     -1.9939228457
C     -3.8691645826     -2.5154854515     -0.3557426022
C     -3.7446611861     -1.7752479374     -1.5445545434
C     -2.6913607768     -2.1603622119     -2.4706211256
C     -2.2952124552     -1.1779278506     -3.4830479037
C     -2.8526185448     0.1261226198     -3.4728636851
C     -1.0485171845     -1.2830661665     -4.1190206806
C     1.8727181837     3.5512222006     2.3234224096
C     0.8458835612     4.1683488019     1.5901177223
C     1.1823325096     4.4981352374     0.2410919945
C     2.3245787037     3.9472468812     -0.3987265257
C     3.2962365917     3.224355345     0.312534241
C     3.1081171725     3.161143837     1.7246120983
C     4.2899949518     1.0449113158     1.83072149
C     3.5824784545     2.0250315132     2.4707087044
C     4.0020813416     0.5514695928     -2.2366388222
C     3.6324280394     1.8163904513     -1.7580476946
C     4.0115879028     2.1661210152     -0.3825288838
C     4.602919339     1.1610778815     0.4260468678
C     1.112263483     -0.4840736961     -4.3158201067
C     2.073753957     0.4335733434     -3.8062870995
C     1.6528782605     1.7665872758     -3.3776485641
C     2.4911222406     2.4654643483     -2.4118474131
C     1.9431122581     3.5823380836     -1.7648863081
C     3.2290357683     -0.1394017025     -3.2325458259
C     4.0446855713     -1.7379284833     -1.7534638763
C     4.5601515229     -0.4526362856     -1.37305575
C     4.7801173698     -0.1720612098     -0.0517236707
C     2.6539468426     -3.6065072672     -1.1701995619
C     3.6363476352     -2.6827887269     -0.7620164786
C     1.1806844556     -1.8943773549     -4.0441935534
C     1.9726115516     -3.5043395659     -2.4249604389
C     2.2556488664     -2.4342812649     -3.3100636069
C     3.3203691904     -1.5632805787     -2.9710322258
C     -2.9575298286     -3.5455903499     -0.0084381789
C     -1.8835431359     -3.8998794831     -0.8462794364
C     -1.7684302247     -3.2231883703     -2.1302010538
C     0.6191766355     -3.948234944     -2.2136008881
C     -0.485819765     -3.3210913139     -2.8442367726
C     -0.1618181543     -2.3585854377     -3.8366702286
C     -0.5985388534     -4.4746672189     1.225148295
C     -1.6708988795     -3.983722421     2.0413522282
C     -2.83531266     -3.561145771     1.4516492087
C     0.5243000967     -4.4560701839     -0.8753878825
C     -0.6997817159     -4.4693876019     -0.1919860803
C     4.3786749116     -1.1180717029     0.9826000254
C     3.7127396087     -2.3165559834     0.663686513
C     2.7461328104     -2.8244013567     1.6235517288
C     1.7653294979     -4.1980713558     -0.2110298229
C     1.8091641439     -3.8464765615     1.158452081
C     0.6197808272     -4.1044849095     1.8778955839


