98

 C     4.3402691789     0.6891446231     2.2791939702
C     4.7549839351     1.4169693553     1.0957821608
C     4.3405790042     -0.6905755469     2.2763383914
C     5.0945665905     0.73127057     -0.0614462072
C     2.3472933391     3.9054849317     -0.2093381282
C     3.9521373485     2.6005401708     1.003392553
C     3.4849470711     3.0752800009     -0.2497112981
C     3.7282068663     2.3032638444     -1.4590710758
C     2.6955890972     2.2974839582     -2.5120201017
C     4.5898558239     1.1860986684     -1.3417478683
C     2.6210852547     1.174602643     -3.3468389591
C     -1.5517390157     1.3960906761     3.8170115208
C     -0.309752677     0.7300847877     3.8998179104
C     3.2432678094     -1.3979441248     2.8708796635
C     3.2426436965     1.3935408327     2.8766624858
C     2.1201734837     0.7280485292     3.4222607507
C     2.1205017842     -0.7352335212     3.4192392879
C     0.8674541264     1.4662536749     3.5164608889
C     3.0774228091     2.6222638048     2.1497000464
C     1.6035567977     4.0988687892     0.9878826913
C     1.8493813722     3.299094137     2.1343681236
C     0.7338394947     2.774265321     2.903439308
C     -0.5798759791     3.3341700139     2.6483121606
C     -1.6882757535     2.6606594699     3.1788379589
C     -1.5511171228     -1.4065598686     3.8112149187
C     -2.7834858614     -0.6848074347     3.5919473905
C     -2.7837931272     0.6747083111     3.5947657422
C     0.8681126873     -1.4743894356     3.5103801279
C     -0.3094253404     -0.7403454356     3.8967771327
C     -3.1763567864     3.3894719591     1.3638081673
C     -2.9878112212     2.6754963627     2.5175523458
C     -3.6071446532     1.3925787569     2.6622878699
C     0.2694142274     4.4858948999     0.6359999697
C     -0.8149046429     4.1876013738     1.4741439902
C     -2.0895366191     4.1820413252     0.8383457719
C     -1.6870901613     -2.6685293257     3.1678097158
C     -0.5783880932     -3.3393400189     2.6345021226
C     0.7350800412     -2.779911647     2.8919491123
C     1.8508564515     -3.3010404419     2.1207068773
C     3.0785918603     -2.6237170288     2.1388360242
C     1.6053836722     -4.0961778342     0.9709337832
C     -2.9866185665     -2.6811992354     2.5064630807
C     -3.1748557968     -3.3904676364     1.349775437
C     -2.0876899832     -4.1803777911     0.8210401376
C     -0.8130475433     -4.1880033032     1.4568132685
C     0.2714068208     -4.4823408581     0.6174493179
C     -3.6065215104     -1.3991658231     2.6565058893
C     -4.2491333307     -0.7322842763     1.5737451279
C     -4.2494616553     0.7299107298     1.57677188
C     2.3490340372     -3.8974984875     -0.2254756809
C     3.4863134386     -3.0666124218     -0.2624208159
C     3.953288615     -2.5968436041     0.9926329341
C     4.7556081587     -1.4133037227     1.0899123961
C     5.0948871612     -0.7226666267     -0.0644613997
C     2.6966069428     -2.2798098027     -2.5214783958
C     3.72923097     -2.2894790386     -1.468565761
C     4.590375537     -1.1724222231     -1.3466275463
C     2.6216075239     -1.1535212354     -3.3516411482
C     3.4299743224     0.0102690617     -3.1276297955
C     4.3884429328     0.0084526249     -2.1443655636
C     1.4163642867     -3.9829203544     -1.3251491645
C     -2.2286239344     -2.6455899788     -2.9736745035
C     -1.021348536     -3.295518693     -2.6193784025
C     0.2288753507     -2.7092873259     -3.0637099926
C     1.4872137959     -3.0997111194     -2.4132190862
C     0.1781959057     -1.4515021731     -3.7750784743
C     1.3668728874     -0.7002236531     -3.8901110169
C     0.160374349     -4.4453786406     -0.8057845775
C     -2.208009715     -4.1732222974     -0.5999806269
C     -1.0576162593     -4.1498829389     -1.4387093655
C     -3.4184341488     -0.6718110633     -3.1994488845
C     -2.2460082283     -1.3950219726     -3.6437137608
C     -1.0525541195     -0.7218900201     -3.9716139616
C     -3.4187332208     0.689558005     -3.1966311686
C     -2.2466380507     1.4151229667     -3.6379086163
C     -1.0528841073     0.7438813885     -3.9685900181
C     -3.3723362963     -3.3825014367     -0.9252951942
C     -4.0426309564     -1.3910409811     -2.125349393
C     -3.3926408838     -2.6707162586     -2.093306804
C     -3.3738357685     3.3908392885     -0.9112805616
C     -3.9306843855     2.8117706463     0.2832977687
C     -4.39383008     1.4665629709     0.3226695117
C     -3.393820962     2.6838819507     -2.0822273418
C     -4.0432468048     1.4040656336     -2.1195680825
C     -4.478771604     0.7363174107     -0.9406142966
C     -4.4784489133     -0.7283645272     -0.9436441938
C     -4.3931777336     -1.4637963739     0.316601244
C     -3.9294398064     -2.8086271569     0.2716650931
C     0.1583969534     4.4547733394     -0.7873787568
C     -1.0594585045     4.1613641951     -1.4215236551
C     -2.2098540263     4.1807181611     -0.5826923151
C     1.3665523807     0.7229658645     -3.8871754799
C     0.1775416028     1.473226426     -3.7690455712
C     0.2276626375     2.7280845403     -3.0524840455
C     1.4858261983     3.1163803328     -2.4003782987
C     1.4145878015     3.9950408088     -1.3086551764
C     -2.2297992061     2.6629196156     -2.9627013308
C     -1.0228127412     3.3119169635     -2.6057221583


