98

 C     4.3272852776     1.5918650204     0.5258116342
C     4.7294012673     0.2581680896     0.3057227516
C     2.6755346177     3.8880527705     0.6083917767
C     3.2240664909     3.5034963697     -0.5960264632
C     4.1012953623     2.3857554845     -0.6399488423
C     1.3703019777     4.4749126715     0.6312485685
C     2.4027685364     3.5007972656     -1.7795815697
C     1.0521478489     3.8614880427     -1.7423802396
C     0.5271666519     4.4638941103     -0.5003803045
C     -1.7598737915     4.025407485     -1.2820725076
C     -0.9139225861     4.5012320749     -0.2645593325
C     -1.412467712     4.4288825524     1.0801956107
C     3.9656174083     1.7852424882     -1.9450978151
C     4.2570068314     0.4110600314     -2.1470887879
C     4.720868918     -0.3373167111     -1.0370364956
C     3.5059935962     -0.2735909302     -3.1248659213
C     2.8735968661     2.4239794348     -2.6132640798
C     -1.231448049     3.3509290237     -2.4462722497
C     0.1432903229     3.1828239867     -2.6726983753
C     0.5669663235     2.0446446461     -3.4640411124
C     1.9830796228     1.6904680298     -3.4487028441
C     2.3909146088     0.3788206469     -3.7822893449
C     3.1587278724     -1.6472633494     -2.9558643212
C     3.5162902437     -2.3809463204     -1.8046017357
C     4.4075446442     -1.7111186349     -0.9008257115
C     4.3700921762     -1.9916606337     0.5170734681
C     3.5910841994     -3.0054830094     0.9749927105
C     1.8875237826     -1.8653652488     -3.587999214
C     -0.3614555212     -2.6293128779     -3.5100260812
C     0.9797519728     -2.8271068326     -3.1087192715
C     1.2683333476     -3.5834536908     -1.8971655067
C     2.5766536106     -3.3851289452     -1.2832936994
C     2.7253684716     -3.7552465279     0.0709852302
C     -2.1920333882     2.389078856     -2.8764956823
C     -1.8115904978     1.2031122576     -3.5232216346
C     -0.4102913216     1.0485958232     -3.8745851252
C     0.056422822     -0.2869684801     -4.2008529711
C     1.4308768271     -0.6091106453     -4.1126643098
C     -0.8171230997     -1.3804116479     -4.0717125649
C     1.8579911729     -1.4302163868     3.8209964413
C     2.9753552426     -1.6680695004     2.9861076728
C     2.9635999164     -2.9067593763     2.2677494781
C     1.8079264622     -3.7234006939     2.2187990588
C     -0.5907023577     -3.8472694184     2.5241093493
C     0.6753221879     -3.4501574711     3.0230134296
C     0.731801782     -2.3086525117     3.8541491609
C     0.3602846223     -4.4125977068     0.2863674981
C     1.6432227571     -4.2191187626     0.8460293896
C     -3.499126522     -3.1058863653     -0.8924808591
C     -2.3257496066     -3.8706330486     -0.6183699123
C     -2.0512213259     -4.062016719     0.7490793599
C     -0.7335979658     -4.3724210034     1.2022274358
C     0.156649974     -4.102815695     -1.1219381414
C     -1.436407587     -3.2309005474     -2.8053356776
C     -1.2220376785     -3.9006370951     -1.5824091852
C     3.6780682806     -0.5200456474     2.4282354741
C     4.4698514097     -0.7482953316     1.2584070809
C     1.3811364021     -0.1022176032     4.042191331
C     2.0064770332     1.0217816885     3.4893947655
C     3.205736831     0.8275644394     2.6714806904
C     3.6047469719     1.8898550676     1.762146501
C     2.8720781007     3.0959573109     1.7997111436
C     -0.2672616242     2.1638153492     3.607639149
C     1.1875589703     2.221057353     3.3909102236
C     1.7072674181     3.2705394767     2.6196492728
C     -1.0659091424     3.1853492552     3.0450321751
C     -0.5016403299     4.1830535549     2.1677812782
C     0.8420835702     4.2183278812     1.9544633575
C     -1.7809789561     -3.1001186104     2.8368143306
C     -1.7118671678     -1.85314404     3.5129989636
C     -0.4577541699     -1.5136647271     4.0862736864
C     -0.0577993638     -0.168455556     4.2174366563
C     -2.2571719535     0.5991680418     3.4111932057
C     -0.9106387503     0.9013007755     3.8841089144
C     -3.6982045667     -1.0751624681     2.2113655087
C     -2.6439553255     -0.7828445667     3.1650691614
C     -4.3918340941     0.0101177738     1.6145611039
C     -4.0386074882     1.3459070139     1.8659334176
C     -2.9934034347     1.6671029239     2.7676200952
C     -2.3860842071     2.9359706172     2.5982589606
C     -4.7187322815     -1.1811543702     -0.5006436309
C     -4.1712792092     -2.3709919156     0.1224866204
C     -3.6847853672     -2.3319191064     1.4629908056
C     -2.7078379803     -3.295027384     1.7693369777
C     -4.86587772     -0.0474414724     0.239126098
C     -2.6049828484     -2.4112854022     -3.0439936592
C     -4.2945450034     -1.1169211251     -1.8863346264
C     -3.6208837507     -2.3497513593     -2.1270014766
C     -3.3269107013     2.4590729958     -1.9858438613
C     -4.6630973216     1.2378079899     -0.3816560209
C     -4.113525502     1.3254710869     -1.7055109058
C     -3.8459662988     0.1022707051     -2.4573746826
C     -2.716659496     0.0535679058     -3.3897941982
C     -2.1922473569     -1.2118113528     -3.7176948542
C     -2.6069627619     3.7278031017     1.3871485188
C     -4.2543176858     2.1260448679     0.6420018698
C     -3.4606638446     3.2592942606     0.3590642421
C     -3.0384768895     3.4483202284     -0.9904257976


