98

 C     -2.3437701704     -1.8361078274     3.4299235948
C     -2.5741157256     -2.7984903723     2.4450822089
C     -3.650475008     -2.509152775     1.5542674711
C     -3.6790760709     -3.0782266303     0.2311295776
C     -2.6805588132     -3.9281155029     -0.160983932
C     -1.0654320097     -1.7153460034     4.0678230609
C     0.0628387081     -2.4483577017     3.6258649122
C     -0.1176947623     -3.3974798029     2.5270899123
C     -1.4507027579     -3.6233351529     2.0051497381
C     -1.5682919807     -4.233758863     0.7330985065
C     2.2915601448     -3.2012407576     2.0231371692
C     1.0291294053     -3.7465533523     1.6973591251
C     2.4585614898     -2.2569900621     3.0877725956
C     1.3645674605     -1.8448910077     3.8731660188
C     1.4601450388     -0.5307863913     4.410111309
C     0.0689292959     -3.9970771946     -2.401604357
C     -2.1831735309     -3.8917275176     -1.5193827988
C     -0.8444202445     -4.3852925     -1.4591659389
C     0.8760018299     -4.2193086296     0.3337851663
C     -0.4368219452     -4.5259172545     -0.0789962796
C     1.4468264495     -3.8182790812     -2.0392950092
C     1.8776242518     -3.9038637352     -0.6953367546
C     -0.2872382312     -3.0021741713     -3.3726873439
C     -1.5254676527     -2.3494331547     -3.3452074865
C     -2.5466101082     -2.8560377649     -2.4142633523
C     -3.6358670575     -1.9832040009     -2.0003032633
C     -4.2058921033     -2.1157609214     -0.6988446779
C     -3.7216234407     -0.70737915     -2.5763383291
C     0.9249354169     -2.3143083952     -3.7298542035
C     2.1512811728     -0.2850773846     -3.9930537601
C     0.9165080754     -0.9613058887     -4.1315028913
C     -0.3412517984     -0.2211777761     -4.1266810245
C     -1.5559923095     -0.953588046     -3.8062411441
C     -2.7010271289     -0.2071083241     -3.4921356566
C     3.3076526731     -2.9637122051     1.0298870254
C     3.0875378202     -3.181632702     -0.3449173144
C     3.7469467123     -2.2971224658     -1.3092193371
C     3.1457950165     -2.1053383658     -2.619724306
C     2.0044824428     -2.8649211065     -2.9530768023
C     3.2631409401     -0.8604127843     -3.2859457594
C     -3.6716166905     1.5875265728     -2.4325213567
C     -4.2472647484     0.4074874033     -1.8601068994
C     -4.5136451612     0.3333947067     -0.4577521876
C     -4.5565211152     -0.9658106112     0.0700375548
C     -3.496025122     2.6973587594     -1.6514560623
C     -2.3858595406     3.5679628711     -1.8966890922
C     -0.1067299262     3.7756647907     -2.635793126
C     -1.3858511873     3.2289409778     -2.8635124525
C     2.1861524867     1.1316946689     -3.8229227868
C     0.989872751     1.8867934892     -3.8194313442
C     -0.3028533664     1.2261116802     -3.997251368
C     -1.4872476268     1.9507111314     -3.5838756164
C     -2.6762227578     1.2098721139     -3.4129920911
C     1.0653963151     3.1161618484     -3.1254637775
C     -3.7483952994     2.6441344076     -0.2212323626
C     -4.140596418     1.4589935717     0.4153563149
C     -3.6686179923     1.2206951968     1.7815210416
C     -3.7569113247     -0.1386649659     2.290376543
C     -4.1953000931     -1.2032822961     1.452850253
C     -2.9448213521     -0.5288257646     3.3691757767
C     -2.853839659     3.5711370605     0.389411348
C     -1.0764322728     3.9515539058     1.9706820502
C     -2.3409503836     3.3417103114     1.6830134685
C     -2.7503984694     2.1481535201     2.4082641495
C     -1.905188043     1.7046428376     3.527721943
C     -2.0612508515     0.3969950072     4.0082838161
C     0.2305440942     4.4535587218     -1.4192254082
C     -0.7289718381     4.6090213171     -0.3888313806
C     -2.0507322085     4.186839969     -0.6527063576
C     -0.2721250632     4.539367954     0.9481951534
C     -0.2059954684     3.416200668     2.9641571285
C     -0.598275601     2.3370683136     3.7708781639
C     0.4674933063     1.5913551677     4.3413811254
C     0.2796266999     0.2203018599     4.7082749347
C     -0.9562043476     -0.3651956762     4.5505085044
C     1.1484956574     3.5698219489     2.5056249113
C     3.138398676     2.2630737165     1.7879767997
C     2.1434951865     2.6182165659     2.8044202301
C     1.8100850004     1.7042201362     3.8361287087
C     4.5186441637     0.4758614773     0.834730405
C     3.8352871995     0.9955385996     1.9453922407
C     1.5977510076     4.1300546203     -1.1092281186
C     4.4687216793     1.1040688646     -0.4399706971
C     3.7240582954     2.2781499583     -0.6551268817
C     3.0791850861     2.9021166358     0.491533903
C     2.0345239921     3.905158017     0.2288557953
C     1.1054318805     4.2264202989     1.2424987735
C     4.5689241164     0.0576087186     -1.4556846773
C     3.9728936504     0.2309395845     -2.6826268356
C     3.3041574558     1.4623406195     -2.982760858
C     3.1995337189     2.487824929     -2.0130059813
C     2.130481815     3.3801766239     -2.1993552804
C     4.0779902716     -1.8453533849     1.4973596073
C     4.6187783104     -0.9599732522     0.6031909889
C     4.5270186603     -1.2200463869     -0.8029887551
C     2.418894311     0.4077231423     3.8995021194
C     3.4182161779     0.034741927     2.9791447542
C     3.5132904683     -1.3558921272     2.7240475793


