98

 C     3.6871817879     -0.4379126372     2.7709101067
C     3.8288622049     0.9027523773     2.3996476875
C     4.6297665277     1.1586645615     1.2369538625
C     4.3670501499     2.3189733298     0.4237515887
C     3.4687912692     3.253008492     0.8389907589
C     2.4895612274     -0.8962395918     3.434544146
C     1.4099185969     -0.034534474     3.7321256882
C     1.5530107757     1.3784662048     3.4343797996
C     2.7706801707     1.8425527851     2.7819124361
C     2.6972819691     3.0539718925     2.0735964336
C     -0.8626206416     1.6247613105     3.730992618
C     0.3613078948     2.202982452     3.3627970647
C     0.7991585935     -3.898145924     2.1622898751
C     0.9803295493     -2.827775526     3.0607989538
C     2.2843700437     -2.2584976483     3.1090448619
C     -0.1650623004     -2.0175019179     3.4572682897
C     0.1017255711     -0.6483461136     3.8713896662
C     -0.9889927186     0.2208626998     3.9878664135
C     0.3247352981     4.6708767327     -0.0140565087
C     2.6403051275     3.9561043685     -0.1078968103
C     1.5077951814     4.4162675527     0.6274913473
C     0.285441203     3.3924027321     2.5319808233
C     1.4920899615     3.8025977771     1.9368303837
C     -0.9220890012     4.4432777613     0.6525514665
C     -0.9825015351     3.7895172066     1.9071662626
C     0.1845040767     4.3079624198     -1.3982818504
C     1.1981727118     3.6208700441     -2.0866106862
C     2.518283894     3.506221653     -1.4490279321
C     3.4645709092     2.4884571192     -1.8932529647
C     4.4310858845     1.9573251589     -0.9756691655
C     3.0652503592     1.6311444901     -2.9383035917
C     -1.2063618283     4.0330949475     -1.6144633799
C     -2.9376455001     2.5794672664     -2.3804275403
C     -1.6305688715     3.0712771874     -2.562015731
C     -0.6279110093     2.2741867429     -3.2573361668
C     0.7697412873     2.6245152917     -3.0740726621
C     1.7323435216     1.6950384495     -3.4905287677
C     -3.0999252952     3.50004427     -0.084867843
C     -1.9007658928     4.1860512976     -0.3662331882
C     -3.6983650508     2.8394902896     -1.1861374071
C     -3.3131108982     3.0011992985     1.2672621047
C     -2.1277704867     2.1102547519     3.2424776052
C     -2.2145343764     3.0959524691     2.2375895897
C     -4.2582845767     1.9581542669     1.4166076116
C     3.518500676     0.2727772847     -3.0187504814
C     4.395004465     -0.2723184626     -2.0378351895
C     4.8583763495     0.6044911268     -1.0221331064
C     4.2413136374     -1.6501335595     -1.7229653209
C     2.454416816     -0.514538921     -3.5708822906
C     -1.5207873312     -1.8745576295     -3.4944247579
C     -0.1974659423     -1.4764371218     -3.663410916
C     0.8479213848     -2.341889576     -3.1432247766
C     2.2162206643     -1.8380642931     -3.1545225653
C     3.191671808     -2.4179257616     -2.2946965036
C     -3.3214915905     1.2984234156     -2.89050653
C     -2.3573049044     0.4742897522     -3.5185459914
C     -0.9926698281     0.945349833     -3.7016693037
C     0.0421697287     -0.0485849211     -3.9068864704
C     1.3661579211     0.3780069739     -3.8842376278
C     -2.6082447111     -0.9144200391     -3.4523856931
C     4.4717858504     -2.153397035     -0.3776872945
C     4.7647396794     -1.2563056902     0.6867927876
C     4.9959159761     0.114370962     0.3545490087
C     4.1868537444     -1.5142863809     1.9667091778
C     3.6161822149     -3.2724602465     -0.1702696246
C     1.7808028619     -4.1778391572     1.1311938372
C     3.0432768372     -3.530584322     1.1100189673
C     3.3247584471     -2.6401342114     2.1724893523
C     -1.8726138243     -3.003638056     -2.7090572377
C     -0.8953845845     -3.7203140489     -1.9949961697
C     0.4969856     -3.4379905641     -2.2678227363
C     1.506617293     -3.9415966378     -1.3210230684
C     2.8168475861     -3.4418043186     -1.3606326888
C     1.0713651962     -4.4661644512     -0.0647134778
C     -3.2038378308     -2.751590255     -2.1865918888
C     -3.5508173031     -3.1963332112     -0.9318056742
C     -2.5901262532     -3.9400086444     -0.1623291873
C     -1.3093773403     -4.264348822     -0.6906186377
C     -0.322921424     -4.5419006245     0.2574648371
C     -4.3571141688     0.7626016621     -2.0576595556
C     -4.4710318176     -0.6241432538     -1.8237514846
C     -3.6470029178     -1.4549502302     -2.6412413533
C     -4.9836069496     -0.1215506551     0.5570247449
C     -4.8673661904     1.3025523033     0.2803257296
C     -4.5841314509     1.7282074616     -1.0001437634
C     -4.3261012946     -2.3514984965     -0.0477331338
C     -4.8093245636     -1.0839362295     -0.4699496565
C     -3.0470516792     1.0120132451     3.3016449425
C     -3.8011797762     -2.5534329263     1.2613665149
C     -3.761035471     -1.5208904219     2.2222430818
C     -4.4808820413     -0.3447176831     1.8791247112
C     -4.0918382437     0.9411354304     2.4160968955
C     -0.4871119514     -4.1794388897     1.6378917149
C     -2.7425735368     -3.5349184766     1.1987803495
C     -1.6397305874     -3.4935027873     2.0851128499
C     -1.4964718793     -2.38798826     3.0230499888
C     -2.5968242456     -1.4358259628     3.1205600623
C     -2.3211988691     -0.1827420333     3.6828693543


