44

 C     0.0000061371     3.6270361775     0.1310220786
C     -1.1904972602     3.2258226659     -0.5897116809
C     -0.7498188987     2.6981634746     -1.8150804845
C     1.1905081235     3.2258187263     -0.5897117574
C     0.7498282279     2.6981610048     -1.8150804456
C     1.9728390153     2.3983602312     0.3020893174
C     0.000005128     3.0650112871     1.4158535535
C     1.2612959455     2.3628008265     1.6029036581
C     -1.9728310346     2.3983668149     0.3020892314
C     -1.2612865374     2.3628053921     1.60290429
C     -2.5004891053     1.1952340248     -0.1840373976
C     -1.1820320731     1.4341744605     -2.2790815171
C     -2.1522085301     0.7208122697     -1.5209421174
C     1.1820368901     1.4341702495     -2.2790813499
C     0.0000010685     0.6864656704     -2.7424987663
C     2.5004932642     1.195225344     -0.1840373036
C     2.1522108766     0.7208050838     -1.5209420484
C     2.5911287082     -0.0000043689     0.6637686591
C     1.2587293242     1.1928720366     2.3544434941
C     2.0051782568     -0.0000033834     1.9238829562
C     -1.2587268021     1.1928758824     2.3544431325
C     0.0000012442     0.7085566942     2.8668044973
C     -2.5911287082     0.0000043689     0.6637686591
C     -2.0051782568     0.0000033834     1.9238829562
C     -2.1522108766     -0.7208050838     -1.5209420484
C     -2.5004932642     -1.195225344     -0.1840373036
C     -0.0000010685     -0.6864656704     -2.7424987663
C     -1.1820368901     -1.4341702495     -2.2790813499
C     2.1522085301     -0.7208122697     -1.5209421174
C     2.5004891053     -1.1952340248     -0.1840373976
C     1.1820320731     -1.4341744605     -2.2790815171
C     1.9728310346     -2.3983668149     0.3020892314
C     1.2587268021     -1.1928758824     2.3544431325
C     -0.0000012442     -0.7085566942     2.8668044973
C     -1.2587293242     -1.1928720366     2.3544434941
C     1.2612865374     -2.3628053921     1.60290429
C     -1.9728390153     -2.3983602312     0.3020893174
C     -1.2612959455     -2.3628008265     1.6029036581
C     -0.000005128     -3.0650112871     1.4158535535
C     -0.7498282279     -2.6981610048     -1.8150804456
C     0.7498188987     -2.6981634746     -1.8150804845
C     1.1904972602     -3.2258226659     -0.5897116809
C     -1.1905081235     -3.2258187263     -0.5897117574
C     -0.0000061371     -3.6270361775     0.1310220786


