44

 C     3.854343286     -0.3513874363     -1.1158633284
C     3.699050116     -1.4630159283     -0.1845419978
C     3.5345084513     -0.9366508429     1.1353513589
C     3.6314528405     0.8298591125     -0.311074861
C     3.5088833553     0.4992464378     1.0870133103
C     2.6107531992     1.6746463966     -0.9047618953
C     2.6756882958     -0.3820199698     -1.9260900591
C     1.981398211     0.8866883584     -1.9661567773
C     2.50029073     -2.1638992222     -0.451677233
C     1.8678651394     -1.5512182549     -1.598450343
C     2.335235477     -1.4219867927     1.7687628247
C     1.6797957672     -2.2714921928     0.7863112359
C     2.341831273     0.9237055503     1.8179252553
C     1.5987809816     -0.3027941278     2.2407850132
C     1.7680102502     2.4100702964     -0.0670324719
C     1.5720955937     1.9751435152     1.338493385
C     0.4765980848     2.7394370386     -0.5457940472
C     0.5749670241     0.9343198112     -2.1924160761
C     -0.1442347637     2.0526229905     -1.6242798823
C     0.4683212747     -1.5054667738     -1.7041319482
C     -0.1758878781     -0.3303090433     -2.2755729045
C     0.3095802642     -2.2463404969     0.6815702993
C     -0.3096146596     -2.2463661703     -0.681560343
C     0.1759689821     -0.3299250956     2.2755064283
C     -0.4683046633     -1.5050710043     1.7041070869
C     0.1442632525     2.0529811073     1.6243698627
C     -0.4766668543     2.7395343734     0.5457932627
C     -0.5748510917     0.9346511064     2.1925500332
C     -1.5720509072     1.9747120838     -1.338515034
C     -1.7680408728     2.4098673497     0.067084902
C     -1.5986833144     -0.3031215838     -2.2410736127
C     -2.3417526712     0.9233616462     -1.8180241932
C     -1.6798761526     -2.2713906304     -0.78644318
C     -2.3351827197     -1.4222045148     -1.7689413604
C     -1.8678066095     -1.5506909109     1.5986288651
C     -2.5003982304     -2.1631566144     0.4515328683
C     -1.9813768345     0.887017076     1.9664834921
C     -2.6107357911     1.6746588849     0.9048836229
C     -2.675498776     -0.3816538341     1.926287992
C     -3.5088110387     0.4988386189     -1.0870758768
C     -3.5347092799     -0.936757684     -1.135523104
C     -3.6993562553     -1.4630148576     0.1844849944
C     -3.6315142944     0.8296829286     0.3112253545
C     -3.8543291908     -0.3511077007     1.1158490812


