44

 C     -0.0000011254     3.480762999     0.0000147657
C     -1.1749951025     3.0400414226     -0.6784200394
C     -0.7438499956     2.3628823619     -1.8759722129
C     1.1749931308     3.040042149     -0.6784200202
C     0.7438484745     2.3628828492     -1.8759722218
C     1.9962680761     2.3625719992     0.2938238445
C     -0.0000009946     3.0399428344     1.3567043945
C     1.2525921931     2.3625530476     1.5818941716
C     -1.9962695861     2.3625707197     0.2938238553
C     -1.2525937097     2.362552239     1.5818941298
C     -2.6715634007     1.1999799336     -0.0931706623
C     -1.4165179325     1.2000183966     -2.2668110428
C     -2.4736194752     0.7169347598     -1.4281000745
C     -0.6906929695     -0.000000226     -2.7410433941
C     1.4165171697     1.2000192859     -2.2668110044
C     0.6906929695     0.000000226     -2.7410433941
C     2.6715626445     1.1999816566     -0.093170627
C     2.4736190073     0.7169363535     -1.4281000949
C     2.7193553139     0.0000008688     0.7724779268
C     1.2549449419     1.1999240036     2.36009417
C     2.0285545105     0.0000006535     1.9688196788
C     -1.2549457082     1.1999232136     2.3600941971
C     -0.0000002346     0.7168936357     2.8563522607
C     -2.7193553139     -0.0000008688     0.7724779268
C     -2.0285545105     -0.0000006535     1.9688196788
C     -2.4736190073     -0.7169363535     -1.4281000949
C     -1.4165171697     -1.2000192859     -2.2668110044
C     -2.6715626445     -1.1999816566     -0.093170627
C     -0.7438484745     -2.3628828492     -1.8759722218
C     1.4165179325     -1.2000183966     -2.2668110428
C     2.4736194752     -0.7169347598     -1.4281000745
C     2.6715634007     -1.1999799336     -0.0931706623
C     0.7438499956     -2.3628823619     -1.8759722129
C     1.9962695861     -2.3625707197     0.2938238553
C     1.1749951025     -3.0400414226     -0.6784200394
C     1.2549457082     -1.1999232136     2.3600941971
C     0.0000002346     -0.7168936357     2.8563522607
C     -1.2549449419     -1.1999240036     2.36009417
C     1.2525937097     -2.362552239     1.5818941298
C     -1.9962680761     -2.3625719992     0.2938238445
C     -1.1749931308     -3.040042149     -0.6784200202
C     0.0000011254     -3.480762999     0.0000147657
C     -1.2525921931     -2.3625530476     1.5818941716
C     0.0000009946     -3.0399428344     1.3567043945


