44

 C     3.8100904778     -0.849096902     -0.1902738049
C     3.1060687054     -2.0032478534     -0.0955338446
C     2.3264411619     -1.9772477768     1.1459162451
C     3.5703894719     -0.0243586904     1.0269447877
C     2.5363674356     -0.6725306489     1.8070776014
C     3.338878753     1.2650199225     0.549164115
C     3.3263052111     -0.1001103574     -1.3742348542
C     3.1211735611     1.19311529     -0.952711476
C     2.1444270103     -2.093404083     -1.2174676706
C     2.1873162291     -0.8490967953     -1.9398983111
C     1.0384905641     -2.3787697384     0.8396774135
C     0.9194021911     -2.4681481417     -0.6577645446
C     -0.09047195     -1.876072234     1.5609983954
C     1.3634640883     0.0530316791     2.2379646749
C     0.0579972213     -0.630829651     2.2932315153
C     2.2948065385     2.0302491524     1.0590359497
C     1.3247242535     1.4874020117     1.9376231498
C     1.9178556048     1.9124314594     -1.2646232891
C     1.5284081289     2.5914614104     -0.0843835364
C     0.9514874892     -0.1868460292     -2.2881270278
C     0.8517106891     1.2676757766     -2.0289333526
C     -0.2984595757     -2.1070034818     -1.2764658791
C     -0.2870277967     -0.975214823     -2.196894531
C     -1.3447043417     -2.231999863     0.9830404273
C     -1.4536309722     -2.3591347012     -0.462544966
C     -2.5672928841     -1.6144184046     1.4302973077
C     -1.1600878037     0.155901171     2.4229973308
C     -2.4284921234     -0.3543628702     2.123030252
C     0.0458221657     2.1352360455     1.6144994608
C     0.1897126523     2.7782553016     0.303185318
C     -1.1509701674     1.54662033     1.9238657306
C     -0.4418526201     1.8411639577     -1.8620714107
C     -0.8100767101     2.5926163873     -0.6559487495
C     -1.5546200751     -0.3065912455     -2.3631463343
C     -1.5948311229     1.0878855724     -2.1966157541
C     -2.7572541375     -1.8676939889     -0.8263203351
C     -3.5035097729     -1.5028336545     0.3785303237
C     -2.7712269379     -0.8051392553     -1.7277173538
C     -3.1983167751     0.62844348     1.3310935286
C     -2.3503334504     1.7444779498     1.0959013635
C     -2.1560802307     2.2264144075     -0.2473704394
C     -2.7308532995     1.4581397815     -1.3143315371
C     -3.7995799908     -0.0873896141     0.2510282264
C     -3.5016648662     0.325997717     -1.0917231152


