44

 C     -3.1585315515     0.2455191696     1.1642244678
C     -2.2350561322     0.4837198418     2.163908733
C     -1.5150687988     -0.7689265983     2.432093083
C     -3.0705382152     -1.1841049586     0.8058713473
C     -1.952070374     -1.7747260643     1.5162970842
C     -3.1187379971     -1.2603957669     -0.5820144497
C     -3.1165721808     1.0456072511     -0.0513848305
C     -3.1442211528     0.1287678492     -1.1419368465
C     -2.2115562575     2.1472434728     -0.1122729032
C     -1.2471426598     1.5333710616     2.0987648698
C     -1.2673291522     2.4106480096     1.011076112
C     -0.1645320796     -0.474441889     2.739719011
C     0.0376136681     0.9801344346     2.59202242
C     0.8292159074     -1.3565851747     2.3071054305
C     -0.920804081     -2.5111723083     0.809776055
C     0.4377782787     -2.4240583265     1.3451619302
C     -2.163190512     -2.0019088726     -1.2925704622
C     -1.0548043786     -2.6361215769     -0.6242719579
C     -2.1900163172     0.1879377655     -2.1982324206
C     -1.615514222     -1.1386584238     -2.3195827693
C     -1.4477766238     2.3138132051     -1.2906118125
C     -1.3190748225     1.3019289119     -2.2861740499
C     0.0083401783     2.8544720336     0.4645871121
C     -0.1136404673     2.812151339     -0.954559495
C     1.2500896891     1.4593599979     2.1450391378
C     1.243762861     2.4707301905     1.0616099677
C     2.154312486     -0.866929025     1.9965180665
C     2.3844242983     0.5457605832     1.9140335376
C     1.5395877092     -2.5968920675     0.5093003188
C     2.6443028876     -1.7051369979     0.9341489754
C     0.1114855437     -2.4138730241     -1.4662357589
C     -0.2200114709     -1.3365161543     -2.4035281011
C     1.3924072283     -2.4839660937     -0.9245955109
C     0.1215158696     1.1008364085     -2.49611188
C     0.8444558734     2.1478780669     -1.745381798
C     0.6821268846     -0.2063670959     -2.5640086588
C     2.3319399499     2.171035179     0.2280453421
C     3.1094181545     1.0589171473     0.7950220777
C     2.1349018302     1.9174902165     -1.1920877296
C     3.2519514138     -1.1635786464     -0.1932544893
C     2.3897814302     -1.5477803267     -1.3532408739
C     2.0626027357     -0.3885940462     -2.0871440849
C     3.4909339167     0.2200658627     -0.2769007373
C     2.7932416524     0.70334244     -1.4782234596


