44

 C     3.748760854     -0.2674156682     -0.6310572181
C     3.7487611478     0.2674170255     0.6310548505
C     3.0761128548     1.5664505251     0.5994558266
C     2.9973438793     0.6354750935     -1.5190558477
C     2.6869349578     1.8365358479     -0.7689879809
C     1.9357931552     -0.1097550009     -2.0642994795
C     3.0761130337     -1.5664495051     -0.5994577722
C     2.0615593694     -1.5230918044     -1.588326442
C     2.9973450609     -0.635474014     1.5190539286
C     2.6869360747     -1.8365348807     0.7689862288
C     2.0615598499     1.5230924325     1.5883250117
C     1.9357944367     0.1097556116     2.0642981341
C     0.896276239     2.2805284109     1.4017393659
C     1.4360223047     2.4344609971     -0.9855220559
C     0.7091849279     2.910645551     0.1442646954
C     0.593291244     0.4557335243     -2.2450163686
C     0.4232548192     1.805971931     -1.8432208775
C     -0.5932926704     -0.455734808     -2.2450157347
C     0.8962761052     -2.2805282349     -1.4017399705
C     -0.4232560294     -1.8059730048     -1.8432194959
C     1.4360237544     -2.4344604615     0.9855211544
C     0.7091858477     -2.9106453385     -0.1442650608
C     0.5932928627     -0.4557333509     2.245015845
C     0.4232566331     -1.8059717288     1.8432205333
C     -0.4232553605     1.8059726893     1.8432197586
C     -0.5932912768     0.4557345537     2.2450159562
C     -0.7091859402     2.9106451565     -0.1442662856
C     -0.8962770392     2.2805275051     -1.4017408461
C     -1.4360231123     2.4344610136     0.9855207306
C     -1.9357945048     0.1097538264     -2.0642983957
C     -2.0615605011     1.5230909247     -1.5883261013
C     -2.997345088     -0.6354760721     -1.5190536749
C     -1.4360229639     -2.4344616277     -0.9855197385
C     -0.7091848309     -2.9106455822     0.144266858
C     -0.8962752699     -2.2805277016     1.4017412819
C     -2.6869356764     -1.8365364706     -0.7689852182
C     -1.9357930028     -0.109754513     2.0642994786
C     -2.0615588398     -1.523091607     1.5883273494
C     -3.0761127419     -1.5664503869     0.5994589298
C     -2.6869356857     1.8365353152     0.7689869655
C     -3.0761138127     1.5664493898     -0.5994568103
C     -3.7487615828     0.267415298     -0.6310549168
C     -2.9973442822     0.6354748721     1.5190557603
C     -3.7487612004     -0.2674167329     0.6310576486


