44

 C     -3.3361968733     -0.0474891775     0.7074564027
C     -2.9059278634     1.2125025697     1.2067634782
C     -2.5000971443     2.0685316078     0.0727888324
C     -3.3361990774     0.047492745     -0.707454907
C     -2.6265105823     1.2804144571     -1.092197406
C     -2.9059257605     -1.2124953531     -1.2067611587
C     -2.6265097938     -1.2804095906     1.0922024405
C     -2.5000860444     -2.0685189259     -0.0727851712
C     -1.505135869     -1.2095898449     2.0386278548
C     -1.8791168764     1.2492679158     2.1253425565
C     -1.1647033497     0.0742104535     2.5941545239
C     -1.2380880403     2.7017215604     0.4311981555
C     -0.8887990105     2.2746403067     1.7573205967
C     -0.2069845519     2.7806221054     -0.4969702887
C     -1.5051366672     1.2095979139     -2.0386242848
C     -0.3854705038     2.1025576047     -1.8167096206
C     -1.879109768     -1.2492643643     -2.1253342226
C     -1.1646946364     -0.0742080675     -2.5941454543
C     -1.2380807405     -2.7017195188     -0.4312012372
C     -0.8887935822     -2.2746488778     -1.7573239696
C     -0.3854681877     -2.1025572072     1.8167139695
C     -0.2069774755     -2.7806146527     0.4969682771
C     0.8887936589     -1.7573209     2.2746458882
C     0.2069783398     0.4969713867     2.7806222228
C     0.3854666231     1.8167109697     2.1025587817
C     1.2380783582     -0.4311992637     2.7017247017
C     1.1646958396     2.5941506493     -0.0742099246
C     1.5051305509     2.0386251649     1.2095921652
C     0.8887979359     1.7573234685     -2.2746441507
C     1.8791092963     2.1253345964     -1.2492662562
C     0.206982567     -0.4969676294     -2.7806150679
C     0.3854710096     -1.8167127246     -2.1025566248
C     1.2380894445     0.4311996522     -2.7017170848
C     1.1647016185     -2.5941497217     0.0742083303
C     1.8791167499     -2.1253418904     1.249266374
C     1.5051415175     -2.0386272861     -1.2095962131
C     2.5000818843     -0.0727872067     2.0685156726
C     2.626505789     1.0921975708     1.2804094555
C     2.905928189     -1.2067691202     1.2124938981
C     2.9059258195     1.206755138     -1.2125045576
C     2.5001015309     0.0727863646     -2.0685362155
C     2.6265149666     -1.0922027904     -1.2804154685
C     3.3361900973     0.7074451868     0.04748746
C     3.3362066123     -0.7074662743     -0.0474947536


