44

 C     -3.6695150849     -1.1847613999     -0.1725501281
C     -3.2497655576     -0.4486704878     -1.3636860354
C     -3.2709762839     0.9346549096     -1.0939073629
C     -3.5779453091     -0.2189323464     0.9287954301
C     -3.3644830162     1.063431217     0.3982250668
C     -2.6472575677     -0.7002932241     1.9063070572
C     -2.6483182093     -2.1118010188     0.0839535076
C     -2.1321977723     -1.955654082     1.4216608523
C     -2.0332711516     -1.0092116204     -1.8973662173
C     -1.6662287598     -2.1065285542     -1.0025603597
C     -0.9784523058     -0.1465515031     -2.397956506
C     -2.2349142251     1.7701945008     -1.5219544935
C     -1.0853755761     1.2823672844     -2.1934878688
C     -2.2832988988     1.8940560082     0.8468531612
C     -1.7057662901     2.4450047875     -0.3323464887
C     -1.5329670422     0.0832053582     2.3645899649
C     -1.3389881651     1.4252577408     1.8830054103
C     -0.7413133867     -2.0013710576     1.6577477093
C     -0.3703029594     -0.7985406053     2.3955682318
C     -0.3189384821     -2.4279769687     -0.7516296291
C     0.1690936981     -2.4763071685     0.6541319431
C     0.3337104823     -0.6760198035     -2.388001539
C     0.6237042027     -1.9123960578     -1.7199048751
C     1.5610549826     0.1624354369     -2.3330438088
C     0.1095757162     2.0106848667     -1.6858541688
C     -0.3283448906     2.7115933071     -0.4949850054
C     1.4312884596     1.5162756492     -1.7895983297
C     0.0037498926     1.90867649     1.8193430208
C     0.4907892322     2.6822302976     0.6496807925
C     0.9593964866     -0.3116055307     2.3898350564
C     1.1288319396     1.1167766935     2.242324807
C     1.5456860984     -2.2185106806     0.8999313083
C     1.9667433905     -1.179311924     1.8098038793
C     2.0137495124     -1.9345609868     -1.4685070264
C     2.6341305262     -0.6569474916     -1.9614017719
C     2.5155267618     -2.2106693295     -0.2012840044
C     3.2188037817     -0.6262489469     1.2925564035
C     3.5616668174     -0.2451825453     -0.9668645304
C     3.5665774201     -1.2749097737     0.0903942112
C     2.394137981     1.9102163414     -0.7516947477
C     1.861194463     2.4723939484     0.479054182
C     2.3174124177     1.6216667483     1.5643015612
C     3.4587962358     1.0303422603     -0.3799060738
C     3.3130024358     0.7915022615     1.090427414


