44

 C     3.5585278468     -0.1923488741     -0.6594287913
C     3.5585290481     0.1923415169     0.6594266004
C     2.908676415     1.4846788854     0.8033868281
C     2.8807709456     0.8210562487     -1.4608925889
C     2.5296576853     1.9248145445     -0.542392025
C     1.8557074314     0.1514549566     -2.1303315752
C     2.9086726067     -1.484684818     -0.8033887229
C     1.8883894615     -1.3073076756     -1.7512114701
C     2.8807705257     -0.8210623     1.4608908358
C     2.5296541166     -1.9248198634     0.5423902586
C     1.8883934322     1.3073038832     1.7512104079
C     1.8557086823     -0.1514588987     2.13033065
C     0.6623537706     2.0571906504     1.6742150053
C     1.3169914757     2.54694277     -0.6960974681
C     0.4779828959     2.856558812     0.4728488319
C     0.5702571695     0.8015388023     -2.3706548454
C     0.3881874985     2.1287662321     -1.7665854329
C     -0.5562723167     -0.0122717853     -2.5543976726
C     0.6623485778     -2.0571917561     -1.6742153291
C     -0.5075471883     -1.4824080194     -2.2807831554
C     1.3169867066     -2.5469454368     0.6960964096
C     0.4779768462     -2.856559463     -0.4728492781
C     0.5702570499     -0.8015402022     2.3706547008
C     0.388184198     -2.1287673302     1.7665850747
C     -0.507543023     1.482409247     2.2807839089
C     -0.556270826     0.0122727379     2.5543985258
C     -1.7938681842     1.8510204811     1.8310406186
C     -0.8277653509     3.0959466563     -0.0188952593
C     -0.8871484579     2.5714898185     -1.4102750271
C     -1.9458744565     2.6110212894     0.6506890046
C     -1.8962450139     0.460359049     -2.1755568931
C     -2.0422406452     1.7348893351     -1.529467834
C     -2.7613642611     1.801728274     -0.2938548746
C     -1.7938722078     -1.8510164598     -1.8310390887
C     -2.615623532     -0.6393078918     -1.6853340755
C     -0.8277713175     -3.0959445853     0.018895428
C     -0.8871526471     -2.5714879498     1.4102751287
C     -1.9458793037     -2.6110168199     -0.650687965
C     -1.8962450866     -0.4603555263     2.175558051
C     -2.6156221611     0.6393130579     1.6853360369
C     -3.2035337389     0.6209376421     0.3635202913
C     -3.2035346568     -0.6209313629     -0.3635188024
C     -2.0422431556     -1.7348853444     1.5294684999
C     -2.7613668552     -1.8017225273     0.2938560777


