44

 C     3.414109346     -0.076198088     -0.9891419885
C     3.0223444216     1.3206245277     -0.7877546086
C     2.9222600644     1.5375800782     0.5731602312
C     3.3994978452     -0.7594889691     0.2646487611
C     3.1304726078     0.2321122455     1.2627477959
C     2.5378895387     -1.9159518809     0.1318738299
C     2.4756768354     -0.6548461863     -1.8611532009
C     2.013013793     -1.8937628576     -1.2642401721
C     1.8887821792     1.6007944813     -1.6741467968
C     1.5285628553     0.3424220857     -2.3223154044
C     0.8905669258     2.4413353682     -1.219687211
C     1.7419734837     2.1602770488     1.1104347723
C     0.8767016617     2.8337349715     0.2150713806
C     2.0545444888     0.0789566249     2.1455475339
C     1.2005925341     1.2923282256     2.136159939
C     1.6367777433     -2.2146872857     1.1516441222
C     1.4155655651     -1.2041770056     2.2313091356
C     0.340225151     -2.8172646076     0.8568545245
C     0.725342934     -2.2790610651     -1.5320513986
C     -0.0934754547     -2.9218220501     -0.4911181112
C     0.1504865251     -0.0055177603     -2.5231935783
C     -0.1689066547     -1.4001692582     -2.3261670738
C     -0.4970030005     2.2499757271     -1.6360431884
C     -0.9101065481     1.0170940008     -2.2816252973
C     -0.4724925972     2.9595756507     0.569541905
C     -1.3115599484     2.8362159274     -0.6125570145
C     -0.2169723556     1.2207264169     2.3504697356
C     -1.0541985255     2.1805446875     1.644776626
C     0.0688901155     -1.2462960805     2.5519643573
C     -0.6035829893     -2.3121301309     1.8091838316
C     -0.8004461699     -0.0799322326     2.6005031841
C     -1.8808805232     -1.8483192882     1.4563197898
C     -2.0621678552     -0.4725884073     2.0410922834
C     -1.4464014463     -2.6552046314     -0.7959663172
C     -1.492579875     -1.7811051505     -2.0034353547
C     -2.375211461     -2.1352012948     0.1445297345
C     -2.2565814182     0.5523863064     -1.9972505403
C     -2.5054615536     -0.8508839281     -1.8647059461
C     -3.1416418429     -1.104948429     -0.537332003
C     -2.5056228239     2.2252839801     -0.2087692561
C     -2.3526466257     1.7990123705     1.2172643211
C     -2.8513977069     0.4746068168     1.3457751914
C     -3.0221290459     1.1658757435     -0.9229148266
C     -3.412808193     0.1080973026     0.0406973022


