44

 C     -2.7256403112     -2.1781938133     0.2442052882
C     -3.2016606627     -0.9795118319     0.8011366534
C     -3.3504767014     -0.0683443625     -0.2860565653
C     -2.3896346638     -1.9747884929     -1.1793071049
C     -2.8172632788     -0.684830623     -1.5187295393
C     -1.0403700239     -2.3760319907     -1.359925366
C     -1.562860657     -2.6318445922     0.9191573518
C     -0.593710981     -3.0017695476     -0.0811094294
C     -2.2587157022     -0.6400158614     1.8815931626
C     -1.2092088579     -1.7025584342     1.9420883517
C     -1.8704047231     0.6664535163     2.015050194
C     -2.8812611446     1.2582868958     -0.1982335118
C     -2.3300818208     1.6951073121     1.0415058674
C     -1.9033303367     0.2486685911     -2.0934958214
C     -2.123645063     1.5452870082     -1.43295443
C     -0.1108393357     -1.5241366985     -2.0755301674
C     -0.5627863828     -0.1612424244     -2.443695772
C     1.2847573951     -1.767409135     -1.8324789541
C     0.7236047271     -2.9620002849     0.2696714307
C     1.6770379541     -2.6140704764     -0.7534331016
C     0.1741598497     -1.3839190456     2.167428674
C     1.1408988669     -2.2380421164     1.5057397768
C     -0.4777516672     1.0197696524     2.4002039937
C     0.5659007831     0.0177626111     2.4481287035
C     -1.3316559059     2.6890131837     1.0309624567
C     -0.2220081119     2.3176569705     1.9334290149
C     -1.1226155118     2.5077100443     -1.4342548919
C     -0.7872947568     3.1699079322     -0.1722695286
C     0.4362433742     0.8861145875     -2.4604636926
C     0.1236556508     2.1984790011     -2.0759431118
C     2.2870922553     -0.6585145221     -1.8407527825
C     1.8423698436     0.6187424304     -2.0557122952
C     2.8179504714     -2.0684113843     -0.1100871063
C     2.4716915074     -1.7905659684     1.2984112745
C     3.2424278361     -0.8877607625     -0.7423201626
C     1.8878825655     0.4626905992     2.0709763637
C     2.8424716936     -0.4644978813     1.5551512788
C     3.3497747114     0.0956427356     0.2851855583
C     1.0104988744     2.6396158961     1.2716863461
C     0.64843947     3.2056627621     -0.0290969428
C     1.2149075529     2.6740454089     -1.2003870807
C     2.2556142304     1.7258896303     -1.1496047587
C     2.052441977     1.7235287099     1.3296512618
C     2.8233940102     1.3924237706     0.1144771144


