44

 C     -3.5464337164     0.8191448983     -0.8270073892
C     -3.6939084896     -0.4652896852     -0.2698837964
C     -3.1552596265     -0.448988734     1.0650376624
C     -2.9086333042     1.6375899711     0.1791074688
C     -2.6678167518     0.8824676459     1.3829137621
C     -1.8352930411     2.3898459747     -0.3980318402
C     -2.5308823377     0.7143684861     -1.8467954348
C     -1.5272395262     1.7436449655     -1.6990763771
C     -2.843346193     -1.3791572173     -0.9954165121
C     -2.1135262202     -0.6506460073     -2.0158694037
C     -2.3033346682     -1.5940323894     1.2692644661
C     -2.1347378158     -2.2250951893     -0.080860859
C     -1.1939482156     -1.4730492995     2.0824263022
C     -1.4241791628     1.0402117766     2.1021689245
C     -0.78336618     -0.1653942985     2.6058318047
C     -0.7826524098     2.7630500298     0.4232547868
C     -0.5425213896     2.1014047333     1.7148712128
C     0.4766001621     2.9699322115     -0.2036000798
C     -0.1904531348     1.5147385987     -2.0894264178
C     0.7972751558     2.3881753887     -1.4378546325
C     -0.7403434787     -0.9618316942     -2.2795888537
C     0.2310462985     0.1401688447     -2.4925698456
C     -0.8956724291     -2.6836464762     -0.4592863605
C     -0.2604953419     -2.1943788084     -1.6904638372
C     0.0454243236     -2.2418457151     1.7922554562
C     0.1805987262     -2.8835923396     0.5430348782
C     0.618221622     -0.221391569     2.7650247145
C     1.1427154049     -1.5070436158     2.3050733134
C     0.9069848891     2.0036866882     1.8753257967
C     1.5440729176     2.6548455724     0.7663382273
C     1.5066508548     0.8066950645     2.3524613964
C     2.1879947169     1.9769222264     -1.320090633
C     2.6203940629     2.0968076612     0.1042489066
C     1.6247871886     -0.179730187     -2.3937992519
C     2.5797918233     0.7650725037     -1.7913929454
C     1.1247599078     -2.3993316812     -1.5214017608
C     1.422146409     -2.7918756195     -0.122929353
C     2.0545198382     -1.460354434     -1.9344523994
C     2.3397147204     -1.2763573363     1.5715860655
C     2.6310826096     0.1764754994     1.6361285896
C     3.1736659656     0.826841273     0.5088888669
C     3.3402291983     0.0588532933     -0.7242780463
C     2.5130439214     -2.0000752243     0.3508524261
C     3.0123207166     -1.2678357856     -0.8020209983


