44

 C     -3.8664464149     0.5899954949     -0.1152808779
C     -3.8809892924     -0.5720461695     -0.8491719978
C     -3.5437540053     -1.6891908122     0.0437819034
C     -3.3546366172     0.316200276     1.2540470571
C     -3.1347855729     -1.0779015186     1.3387925396
C     -2.3119494458     1.2518709575     1.5168770801
C     -2.9996649368     1.5898822192     -0.7196453752
C     -2.2031212053     2.1246475605     0.3112198209
C     -2.8193608317     -0.4006908298     -1.8555990926
C     -2.3170866003     0.9758452733     -1.8375900283
C     -2.3607519227     -2.2038912702     -0.4577303416
C     -1.8943432686     -1.4429330072     -1.6553149077
C     -1.8109708735     -1.5064379986     1.6885015156
C     -1.3566675884     -2.3423880733     0.5881607729
C     -1.085163856     0.8457610439     2.1531646884
C     -0.8438690481     -0.6053346585     2.2578943948
C     0.0752524637     1.6946592975     1.988082413
C     -0.9531914326     2.6565521144     -0.0294402389
C     0.0768714694     2.6725711276     0.9554472585
C     -0.9220795562     1.2051793689     -2.0224884059
C     -0.3226218672     2.2784425899     -1.2706443167
C     -0.4941536448     -1.2690165458     -1.8735947002
C     -0.0283081964     0.0473191595     -2.2901992046
C     -0.015957534     -2.4661868395     0.2572438006
C     0.4382663917     -2.1355554437     -1.1273030598
C     0.5035679146     -1.0570170436     2.2141531843
C     0.8953236624     -2.1255102924     1.3183207125
C     1.4504589837     1.2030281703     2.1031844142
C     1.6576516001     -0.1609135439     2.3241545494
C     1.3629432032     2.664673489     0.3159613629
C     1.1185647312     2.3674346773     -1.0604839162
C     2.2866848856     1.8750445863     1.0785668061
C     1.37533542     0.2534771166     -2.3275577814
C     1.9889563646     1.4814409404     -1.7129184102
C     1.8137300533     -1.9713550494     -1.3404199916
C     2.2605277514     -0.8234995843     -2.103242755
C     2.2793549902     -2.0448279606     1.0561605711
C     2.7994034515     -0.8109937967     1.7247729959
C     2.7934563755     -2.1376037198     -0.2344864997
C     3.2963424931     1.1780801142     0.390156496
C     3.1845156676     1.093422601     -1.0641095899
C     3.4401332055     -0.2920021972     -1.4363446167
C     3.6554007571     -0.1720980732     0.8445590323
C     3.7671278756     -1.05813375     -0.3396362617


