44

 C     3.6892045721     0.411092526     0.8772270079
C     3.3158179739     -0.9532267083     0.8637276967
C     3.2401927629     -1.3987233234     -0.4923789451
C     3.5511589985     0.902892179     -0.5271919044
C     3.2678615753     -0.186363526     -1.3690788958
C     2.6809556522     2.0015416821     -0.5355112403
C     2.7189959648     1.1030228374     1.6425092048
C     2.1889954102     2.1646602381     0.8790490186
C     2.1264503702     -1.1493206347     1.708710392
C     1.734122778     0.1448353338     2.1812355764
C     1.1025399775     -2.094850902     1.3416284454
C     2.1982250273     -2.2092663116     -0.8942462631
C     1.1590689262     -2.6614737816     0.0169793377
C     2.064509938     -0.2156279473     -2.1542059459
C     1.5114829679     -1.5447501791     -1.9825838794
C     1.512988508     2.0121748462     -1.3358229904
C     1.1217454569     0.8779868759     -2.1579001356
C     0.8337408213     2.4978643557     0.8854932342
C     0.4682987221     2.627318442     -0.5226887379
C     0.3478059625     0.5275758138     2.3401755716
C     -0.1175731608     1.8161142459     1.7613755087
C     -0.2062486071     -1.8603245327     1.9077900111
C     -0.5924477563     -0.5292233787     2.4130286696
C     -1.3465112949     -2.407858286     1.304008718
C     -0.0629164661     -2.6942570596     -0.7448196218
C     0.1337595449     -1.8180433629     -1.9211238595
C     -1.2923097156     -2.7117988701     -0.0930236971
C     -0.3313020288     0.5868226933     -2.3108439918
C     -0.8204495392     -0.7986538398     -2.2182498042
C     -0.8389689817     2.5640924041     -0.9048902273
C     -1.2642592878     1.6027094165     -1.900381371
C     -1.4831117291     1.9673796486     1.4474652017
C     -1.853877752     2.5736257031     0.1442354442
C     -2.0187734745     -0.3237231645     2.167901492
C     -2.504803425     -1.5113886738     1.5240976495
C     -2.4753888632     0.9380393769     1.7017771785
C     -2.3846077381     -2.0035523014     -0.7076253505
C     -2.1869554552     -1.053501085     -1.7405057982
C     -3.2452517131     -1.419533277     0.3372956769
C     -2.664497319     1.341134708     -1.5903619588
C     -3.0252888319     2.0322629168     -0.3359210737
C     -3.4453144951     0.9905926225     0.6084638881
C     -3.1008934218     0.0327217882     -1.486645119
C     -3.7061718541     -0.1709975086     -0.1281751126


