44

 C     3.8732469686     -0.1501535487     -0.8683854639
C     4.0680001049     -0.6441018542     0.4112043963
C     3.7120248265     0.4296146152     1.3157293059
C     3.3925278426     1.2511016832     -0.8354855205
C     3.2880195689     1.6074157432     0.5279461637
C     2.2319555193     1.2974834722     -1.6740489323
C     2.9013418668     -0.946652596     -1.6027819805
C     1.9173228255     -0.0863432308     -2.1401405435
C     3.0691142214     -1.7262029968     0.5768945647
C     2.4677686956     -2.0094540947     -0.7109744517
C     2.5794900663     0.0213643349     2.024565255
C     2.1872012823     -1.3469158427     1.619847423
C     2.0123217169     2.0516224594     1.0247613596
C     1.5449345517     1.0464110023     2.0107698192
C     1.1431987491     2.0750880822     -1.2806135823
C     1.0482495471     2.4856493169     0.1207618308
C     -0.2026884801     1.7788541505     -1.7142308155
C     0.5336390063     -0.5066023988     -2.2740672537
C     -0.5336402535     0.5066159806     -2.2740640595
C     1.1228930382     -2.3584298413     -0.7415768915
C     0.2026873776     -1.7788438885     -1.7142419093
C     0.7953839129     -1.6731063044     1.5857581063
C     0.3461643293     -2.4509428628     0.4783054209
C     0.1933513056     0.7248595835     2.1457515449
C     -0.1933498996     -0.7248719502     2.1457472503
C     -0.3461639352     2.4509404856     0.4783208389
C     -1.122893632     2.3584341272     -0.7415619418
C     -0.7953829694     1.6730973756     1.5857687598
C     -2.4677691975     2.0094583024     -0.7109609092
C     -1.9173239242     0.0863560298     -2.1401392654
C     -2.9013425737     0.9466620655     -1.602774555
C     -1.1431996976     -2.0750806458     -1.2806258606
C     -1.0482495489     -2.4856495195     0.1207472173
C     -2.231956509     -1.2974735358     -1.6740556187
C     -1.5449332245     -1.0464227086     2.0107643473
C     -2.0123210825     -2.0516286806     1.0247501622
C     -2.1872004216     1.3469059111     1.6198567689
C     -3.0691140596     1.7261990047     0.5769067412
C     -2.5794887107     -0.0213762428     2.024566362
C     -3.873246721     0.1501583584     -0.86838176
C     -3.3925288432     -1.251097029     -0.8354917077
C     -3.2880188604     -1.6074182103     0.5279382562
C     -4.0680011316     0.644099419     0.4112110845
C     -3.7120246474     -0.4296225213     1.3157290433


