44

 C     -3.5643495105     -1.2701882196     -0.7072480335
C     -2.9262662996     -0.449026771     -1.7287196947
C     -3.0021801427     0.9014308153     -1.3745294811
C     -3.7557083191     -0.364563931     0.4299154088
C     -3.5736909102     0.9847778749     -0.0078168402
C     -3.0039491538     -0.8168942396     1.5480977611
C     -2.559482672     -2.1682291167     -0.2980076921
C     -2.2942765052     -2.0243437541     1.1173990311
C     -1.6086003573     -0.9698553503     -2.0521432353
C     -1.4063729935     -2.1173113208     -1.1854996393
C     -0.4941271526     -0.1158885262     -2.3825595181
C     -1.8536666963     1.7819887935     -1.4758739151
C     -0.6034863504     1.3288055497     -2.0790162676
C     -2.7468786754     1.8507442559     0.7069002005
C     -1.8078294523     2.4649277666     -0.2417327603
C     -2.0303599127     0.0275721607     2.1806128667
C     -1.9194496756     1.3945761288     1.7977028186
C     -0.9699140848     -1.9796767151     1.5562030147
C     -0.7825741254     -0.7227312174     2.2967416435
C     -0.1145852694     -2.4446111089     -0.7243718022
C     0.1145852405     -2.4446158389     0.7243559024
C     0.7825741805     -0.7227161878     -2.2967462731
C     0.9699140654     -1.9796665507     -1.5562158904
C     2.0303600904     0.0275863591     -2.1806127046
C     0.5797553002     1.9946360208     -1.6724647239
C     1.9194500233     1.3945876539     -1.797693751
C     -0.5690918567     2.7138761068     0.4017969738
C     -0.5797549433     1.9946251176     1.6724777881
C     0.5690923097     2.7138786581     -0.4017792616
C     0.4941272872     -0.1159041695     2.3825588469
C     0.6034866119     1.3287917608     2.0790249221
C     1.4063729593     -2.1173191273     1.185485976
C     1.6086003984     -0.969868939     2.0521370823
C     2.2942763829     -2.024336389     -1.1174121401
C     3.0039491788     -0.816884312     -1.5481030344
C     2.5594826803     -2.1682312521     0.2979937022
C     2.9262662917     -0.4490383402     1.7287168013
C     3.7557083392     -0.3645613947     -0.4299177949
C     3.5643493876     -1.270193166     0.7072397656
C     2.7468790402     1.8507485369     -0.7068880741
C     1.8078298249     2.4649256887     0.2417488176
C     1.8536670443     1.7819788288     1.4758855959
C     3.5736911826     0.9847774176     0.0078232376
C     3.0021802395     0.9014214437     1.3745353711


