44

 C     -3.4273757237     -1.0961043431     0.2557608943
C     -3.463751821     0.3158764861     -0.0780774291
C     -2.9477221001     0.441158143     -1.3666771095
C     -2.6969414863     -1.8013932717     -0.8143676505
C     -2.4747818631     -0.8945703639     -1.8441999858
C     -1.5686668715     -2.512300537     -0.2616081643
C     -2.6391361059     -1.2156192392     1.3905548018
C     -1.6052402289     -2.2199577752     1.176866534
C     -2.7945303507     1.0650164509     0.9754230151
C     -2.254643401     0.1022558852     1.9159965826
C     -1.9962774275     2.1839433343     0.6197536724
C     -1.9519741172     1.4066777216     -1.7319542892
C     -1.5475511688     2.3659175409     -0.795386832
C     -1.1885943712     -0.7255282802     -2.4282942141
C     -0.9332240716     0.7148415585     -2.5243000978
C     -0.3109220337     -2.5525724492     -0.9495722815
C     -0.1113160095     -1.6368179149     -2.1094934625
C     0.8394266615     -2.8269536408     -0.1056380425
C     -0.4259199592     -2.1064221239     1.8883135712
C     0.746670404     -2.6274460326     1.2888925701
C     -0.9672462785     0.2891088949     2.5258733959
C     -0.0659726351     -0.8418094294     2.5944506944
C     -0.9052439921     2.5119935933     1.4348528732
C     -0.3487538166     1.5927087191     2.3811652221
C     -0.1687153342     2.8416423717     -0.7794510006
C     0.1944024558     3.0472879329     0.5972888559
C     0.3758049895     1.1947675421     -2.5435263568
C     0.8010936521     2.2718453352     -1.6260135897
C     1.2125291272     -1.1375391034     -2.3855848658
C     1.4183178748     0.2416232427     -2.6303634588
C     2.1688422504     -2.3423102356     -0.4678136329
C     2.3487236715     -1.5467125702     -1.5576017446
C     1.8864590587     -1.8131962081     1.7438556944
C     1.3509083831     -0.6824353192     2.4686309949
C     2.7805054066     -1.6605630576     0.71166835
C     1.0801630311     1.7108668049     2.2505482134
C     1.3945626704     2.607977314     1.1073415734
C     1.9211975851     0.6076330668     2.1767189303
C     2.1287240395     1.9230017732     -1.1142543574
C     2.5463798858     0.7320828905     -1.8065222632
C     3.123668107     -0.3370405795     -1.1583946586
C     3.2518877084     -0.3521081815     0.2861992111
C     2.3842745587     1.97945345     0.286956458
C     2.8399616462     0.7817256045     1.0019843789


