44

 C     -3.443416628     0.7034427885     -0.9660205735
C     -3.2613620906     -0.7230308663     -0.7983008248
C     -3.3031959258     -1.0545337992     0.5675255974
C     -3.1596182036     1.2783518652     0.3454578807
C     -3.1319731898     0.2494137699     1.2994712701
C     -2.0331316318     2.1819712051     0.2515520626
C     -2.4026966985     1.1306357277     -1.7968921283
C     -1.6475243947     2.165390547     -1.1612443477
C     -2.1480660862     -1.1943693196     -1.6195801191
C     -1.611315177     -0.027698821     -2.2564560481
C     -1.2343051569     -2.2087127771     -1.1304727934
C     -2.3363012175     -1.9270893908     1.067684077
C     -1.3455506189     -2.5983250752     0.2721553495
C     -2.0285376119     0.1130002258     2.1896877373
C     -1.6629841404     -1.2833952513     2.1854287011
C     -1.0077217057     2.2182694675     1.2559132757
C     -0.9647814235     1.1063814118     2.2389406131
C     0.2588683713     2.7821667047     0.8236369811
C     -0.3029216362     2.3567313324     -1.5346976879
C     0.5567769694     2.9013330648     -0.5838209049
C     -0.2008354327     0.1033824351     -2.5822662733
C     0.4462830726     1.3643405156     -2.3348257465
C     0.0639119371     -2.2296820896     -1.7196201464
C     0.582318485     -1.0837855821     -2.476604227
C     1.1840261268     -2.7050174508     -0.9653170716
C     -0.1311630234     -2.6506811015     1.0726998201
C     -0.3314909025     -1.7356340303     2.2229463684
C     1.1185008955     -2.7152539542     0.4734733982
C     0.321936392     0.6054486109     2.6315402464
C     0.6584828841     -0.8057460347     2.5334970588
C     1.493525921     2.3957495423     1.4230650663
C     1.5287372664     1.3046414185     2.265627867
C     1.9147205078     2.4043103997     -0.8503727494
C     1.8301031942     1.4180516682     -1.9163300859
C     2.5149630936     2.1228858606     0.3511865398
C     2.014095848     -0.9967673099     -2.2537435305
C     2.3887264223     -2.0528790313     -1.382831734
C     2.5865681776     0.2352588784     -1.7780041015
C     2.2467657388     -1.874439328     0.9374314085
C     2.0258044127     -0.9308170672     1.9622578051
C     2.5825120604     0.3651454746     1.8487484017
C     3.1233900623     0.8328545889     0.603234528
C     3.0015674349     -1.4696521277     -0.2322613022
C     3.246306622     -0.0716470954     -0.4834996578


