44

 C     -1.8099828922     2.6341460339     0.3233781295
C     -1.7632378804     2.0753795984     1.5918767685
C     -2.5780963382     0.8439052046     1.5893100561
C     -2.6275963886     1.7391072557     -0.527005357
C     -3.1360592841     0.6539474359     0.2725452415
C     -1.8991665095     1.5055718749     -1.7049738708
C     -0.6068106483     2.9892077981     -0.3647805698
C     -0.6627895202     2.3164177357     -1.669831143
C     0.6068106483     2.9892077981     0.3647805698
C     -0.5053711349     1.8005049105     2.2316154857
C     0.6627895202     2.3164177357     1.669831143
C     -1.8564901929     -0.1716390904     2.2369509451
C     -0.5653742449     0.393591588     2.6892975139
C     -1.8991665095     -1.5055718749     1.7049738708
C     -3.1360592841     -0.6539474359     -0.2725452415
C     -2.6275963886     -1.7391072557     0.527005357
C     -1.8564901929     0.1716390904     -2.2369509451
C     -2.5780963382     -0.8439052046     -1.5893100561
C     -0.5653742449     -0.393591588     -2.6892975139
C     0.5053711349     1.8005049105     -2.2316154857
C     0.5653742449     0.393591588     -2.6892975139
C     1.8099828922     2.6341460339     -0.3233781295
C     1.7632378804     2.0753795984     -1.5918767685
C     1.8991665095     1.5055718749     1.7049738708
C     2.6275963886     1.7391072557     0.527005357
C     0.5653742449     -0.393591588     2.6892975139
C     1.8564901929     0.1716390904     2.2369509451
C     -0.6627895202     -2.3164177357     1.669831143
C     0.5053711349     -1.8005049105     2.2316154857
C     -1.8099828922     -2.6341460339     -0.3233781295
C     -1.7632378804     -2.0753795984     -1.5918767685
C     -0.5053711349     -1.8005049105     -2.2316154857
C     -0.6068106483     -2.9892077981     0.3647805698
C     0.6627895202     -2.3164177357     -1.669831143
C     0.6068106483     -2.9892077981     -0.3647805698
C     1.8564901929     -0.1716390904     -2.2369509451
C     2.5780963382     0.8439052046     -1.5893100561
C     3.1360592841     0.6539474359     -0.2725452415
C     1.8991665095     -1.5055718749     -1.7049738708
C     2.5780963382     -0.8439052046     1.5893100561
C     1.7632378804     -2.0753795984     1.5918767685
C     1.8099828922     -2.6341460339     0.3233781295
C     3.1360592841     -0.6539474359     0.2725452415
C     2.6275963886     -1.7391072557     -0.527005357


