44

 C     -3.0746056697     1.1880824022     0.5381072042
C     -3.4039349653     -0.0014696126     -0.0730129405
C     -2.7857510959     -0.0008863575     -1.4563596788
C     -2.5749616015     2.0705530007     -0.4921982348
C     -2.1471517536     1.2354531736     -1.6404840691
C     -1.7020024334     2.9459311131     0.1143707028
C     -2.1246433877     1.227988826     1.6750711901
C     -1.3762273175     2.4018610954     1.4901783809
C     -1.4635198071     -0.0008135784     2.0816398602
C     -3.0736789062     -1.1912175027     0.5374812692
C     -2.1238606048     -1.2304998706     1.6743604673
C     -2.1459945049     -1.2375429662     -1.640941565
C     -2.5723281168     -2.072016055     -0.4932596487
C     -0.7558870306     -1.2817977764     -2.0639019388
C     -0.757162537     1.2813068333     -2.0634473214
C     -0.0180228082     -0.0000971215     -2.2375267323
C     -0.5143194826     3.2610669779     -0.5087304246
C     -0.0184671536     2.4657183135     -1.6576607159
C     0.0161976948     2.4658836728     1.6578678815
C     0.5113301995     3.2616114164     0.5088662882
C     0.0180246754     -0.0001053431     2.2375246333
C     0.7559332947     1.2820714995     2.0637859683
C     0.7571222628     -1.2810444553     2.0635735641
C     -1.3740077971     -2.4030530316     1.4891045442
C     -1.699581616     -2.9486731529     0.1131467962
C     0.0185521561     -2.4659433894     1.6575713739
C     -0.0162908256     -2.4661048541     -1.6577749089
C     -0.5118066796     -3.2608627586     -0.5095287492
C     0.5147809335     -3.2603141516     0.5093877429
C     1.3762207163     -2.401811676     -1.4892387387
C     1.7022796151     -2.9471113748     -0.1132755813
C     1.4635207343     0.0006087054     -2.0816382736
C     2.1249129589     -1.2284802942     -1.6742951071
C     1.374008993     2.4031024585     -1.4900535977
C     1.6992835376     2.9474833141     -0.1142454186
C     2.1235881365     1.2300094101     -1.675136812
C     2.1460202793     1.2374490235     1.6406721113
C     2.5730025652     2.0728864229     0.4923016635
C     3.0735559053     1.1909729328     -0.5380992773
C     2.1471491545     -1.2355640443     1.6407679447
C     2.5742936189     -2.0696959237     0.4931500972
C     3.0747309748     -1.188332023     -0.537488222
C     2.7857572246     0.0017030419     1.4563587734
C     3.4039384635     0.0016936797     0.0730094991


