44

 C     3.2806253469     -0.539669032     -1.6232120395
C     3.6180997833     0.4067253389     -0.6780254339
C     3.4336898795     -0.1153563069     0.676688035
C     2.7785708783     -1.7074916275     -0.8836236746
C     2.9397281762     -1.4767234932     0.5559153278
C     1.5051308079     -2.0004806954     -1.3669686791
C     2.1860976286     0.0132145877     -2.3925513213
C     1.1240992822     -0.8921840479     -2.3230476787
C     2.8424986246     1.6228593975     -0.8431911866
C     1.9024334088     1.3789025839     -1.9010538261
C     2.708527174     0.860079087     1.4059654368
C     2.3530162444     1.962874964     0.4565468072
C     1.7239888678     0.4294470456     2.3363992052
C     1.8980354538     -1.8733809237     1.4158811287
C     1.4386068732     -0.9415471703     2.4124796249
C     0.4784848883     -2.5239627166     -0.5044949201
C     0.6915621891     -2.5112416698     0.8978589131
C     -0.8742756429     -2.3980747252     -0.9839482297
C     -0.2395028632     -0.4652559565     -2.4137596533
C     -1.2132056943     -1.4476645585     -2.019194596
C     0.5512270468     1.8290799962     -1.7852977097
C     -0.5512054317     0.9614878817     -2.2685257563
C     1.1070421428     2.5559772709     0.552994568
C     0.2714309855     2.6655677972     -0.6341291805
C     0.420309421     1.1316782409     2.4677460704
C     0.1811727182     2.2442976327     1.6690296301
C     0.001411429     -1.1008891271     2.6058925268
C     -0.4600025348     -2.139339048     1.771433069
C     -0.6565509443     0.1570433456     2.6720697762
C     -2.0072324283     -2.4956937315     -0.0897528242
C     -1.7600415473     -2.0553231174     1.2859077278
C     -2.5974554158     -1.0847515286     -1.7928490674
C     -3.0985039968     -1.7982855525     -0.6020308868
C     -1.903903014     1.283711568     -1.8792139064
C     -2.9048125553     0.2518619484     -1.6880741109
C     -1.0702643203     2.8357110708     -0.1879319064
C     -1.151982385     2.4706965233     1.2214213096
C     -2.1318993998     2.2303316484     -0.8355851314
C     -1.9786393456     0.3115616711     2.0962151823
C     -2.5893903517     -0.8814449091     1.5266155723
C     -3.4526200268     -0.7838949183     0.3592628404
C     -3.5516918467     0.4545957799     -0.3338673653
C     -2.2481114726     1.5836707914     1.4448706033
C     -2.9944950331     1.5912816848     0.1991377291


