44

 C     -2.2660612744     -2.4997163312     -0.5894246958
C     -2.9759773482     -1.4205765681     0.0427807136
C     -3.0086142511     -0.2992487667     -0.8612161714
C     -1.7023859409     -2.0291320669     -1.7702659562
C     -2.1060901205     -0.6295841235     -1.9621908395
C     -0.2900949339     -2.3662016354     -1.7424103846
C     -1.1882807432     -2.9405165742     0.2879215683
C     0.0462956907     -2.9469323914     -0.4219216764
C     -2.4239590188     -1.2456005542     1.3474884218
C     -1.3083450687     -2.2293528813     1.5196308909
C     -2.2907465667     0.0636978594     1.8761922137
C     -2.9946384838     1.0104259124     -0.3150129003
C     -2.7194787129     1.1608341544     1.1086580519
C     -2.2684074856     2.0263741875     -0.9753720046
C     -1.1716419949     0.3394952945     -2.4507719383
C     -1.3269312904     1.7181997156     -2.0004195294
C     0.6030478205     -1.4976767468     -2.3478481874
C     0.1882214434     -0.1064696472     -2.7099809367
C     1.9298749406     -1.4555826954     -1.8448665906
C     1.2734702158     -2.5904869456     0.2477594564
C     2.3003084343     -1.9631761722     -0.5819146078
C     -0.1467423594     -1.8285099533     2.1710902139
C     1.1631222699     -2.1377886793     1.6202067799
C     -1.0332475296     0.4684722948     2.5379439597
C     -0.053961394     -0.4718869604     2.7715045463
C     -1.7984363869     2.277656094     1.31798128
C     -1.5893447775     2.8790784115     0.0537758309
C     -0.6987370115     1.8540993069     2.1013477253
C     -0.154766115     2.5134062726     -1.718458772
C     -0.3091503293     3.1329967431     -0.3787449148
C     1.3100933558     0.738882637     -2.4657335983
C     2.4202860526     -0.0692674843     -2.0120474304
C     1.1323471118     2.0138996379     -1.8201539512
C     3.1792475054     -0.9363522872     -0.0214748776
C     3.1658869596     0.2669082325     -0.9145842126
C     2.0632973686     -1.1153491087     2.1203661175
C     1.3172371814     -0.067384369     2.6997784714
C     3.0376251066     -0.5065191936     1.2672397342
C     0.6607275553     2.1595453989     1.6879792964
C     0.847579062     2.8045244892     0.40318484
C     1.8483424168     2.3029521924     -0.5366388356
C     2.84514707     1.432465985     -0.0998185995
C     1.6959787657     1.2205640212     2.0930845216
C     2.7979048102     0.9688332948     1.2653569774


