44

 C     3.1673801658     -1.3567982662     -0.7436512922
C     3.2656848181     0.0020053445     -1.161448113
C     3.3251767001     0.7718158991     0.0271998113
C     3.043165034     -1.4419177465     0.7181951015
C     3.1632962891     -0.1316707335     1.1990241368
C     1.8763996087     -2.2228033513     1.006516499
C     2.0617458312     -1.991722167     -1.3309055615
C     1.3294295552     -2.6918154722     -0.2916691822
C     2.1580452709     0.2247261621     -2.0862722543
C     1.3755105669     -1.0467299471     -2.1829804124
C     1.4516231348     1.3997200038     -2.0026179419
C     2.504780889     1.9067802458     0.2117582522
C     1.7305770084     2.3569833179     -0.9013173745
C     2.1548356439     0.4345650671     2.0337603845
C     1.8333325564     1.7738453002     1.520034205
C     0.9497694631     -1.7402023933     1.957710556
C     1.0915768458     -0.3905647762     2.4767511249
C     -0.4732123201     -2.0464144445     1.8297901541
C     -0.0203166554     -2.8279159223     -0.4579895249
C     -0.9367585603     -2.7367030967     0.6844914234
C     -0.0364364378     -1.0756162222     -2.2887469642
C     -0.704164702     -2.180968544     -1.6024865194
C     -0.0070827539     1.4272756235     -2.2668603904
C     -0.7879277534     0.2033299296     -2.4204541225
C     0.5208800851     3.0201818087     -0.6489197621
C     -0.5373480474     2.5139336283     -1.5688633211
C     0.5555047416     2.3004214958     1.7055480312
C     -0.0401369904     3.0573463383     0.6329784561
C     -0.2579816606     0.1490225417     2.6161217054
C     -1.2383762883     -0.9061861443     2.3054479556
C     -0.5193192949     1.470595162     2.2710841131
C     -2.4950919687     -0.5957445325     1.7509492649
C     -2.2251319477     -2.4498196562     0.168918133
C     -2.0622297634     -2.1022632648     -1.2897332019
C     -3.0408642722     -1.4756156591     0.7350009054
C     -2.1571726419     0.2561953181     -2.0258012508
C     -2.8303723714     -0.9528606594     -1.5605053113
C     -3.5370315805     -0.6384057264     -0.3567226936
C     -1.7749639059     2.415754752     -0.8641345226
C     -1.4416951889     2.6965249565     0.5261513942
C     -1.7754335634     1.7843491651     1.559167351
C     -2.7314538887     0.7822255054     1.2931475436
C     -2.6172700042     1.3426761523     -1.1433869358
C     -3.3109426468     0.7124640079     -0.0342858494


