44

 C     -3.7306948157     0.9050115773     0.063497446
C     -3.3219464345     1.0629323582     -1.2346123033
C     -2.9069157662     -0.2293737579     -1.7941916254
C     -3.6248831623     -0.5028581976     0.4409486624
C     -3.0778534753     -1.2264479095     -0.7256192323
C     -2.9127988239     -0.5258847587     1.6358550234
C     -2.8715533852     1.7283602172     0.9460768186
C     -2.4538429782     0.8613435076     1.968283523
C     -2.2060144025     1.9924426779     -1.2735007896
C     -1.8836165214     2.3792264083     0.1302559028
C     -1.6321357331     -0.034750628     -2.3284649164
C     -1.2063620645     1.3833079532     -2.0147845719
C     -0.62469807     -1.0644935021     -2.2719768315
C     -2.0636292034     -2.1516284418     -0.5143761967
C     -0.9014397871     -2.1981174285     -1.4160890071
C     -1.8167797188     -1.4103008142     1.8724607741
C     -1.5057945537     -2.3670752171     0.8462769504
C     -1.1110142567     0.7865325861     2.3570657184
C     -0.7278961233     -0.6657234769     2.4358763553
C     -0.5260630518     2.3856090089     0.5293823784
C     -0.1701058263     1.6848461757     1.775829098
C     0.1701353807     1.6848803418     -1.7757721781
C     0.5260900735     2.3856003691     -0.5293194048
C     0.7278879771     -0.6656697044     -2.4358834663
C     1.111060652     0.7865928575     -2.3570780189
C     1.8167577286     -1.4102805977     -1.8725028227
C     0.1819880777     -2.793046514     -0.7146019389
C     -0.1820329216     -2.7930405938     0.7145059301
C     1.5057510415     -2.3670347599     -0.8463509542
C     0.6246873633     -1.0645450603     2.2719485043
C     0.9014141554     -2.1981284413     1.4160126589
C     2.0636021789     -2.1516344409     0.5143259432
C     1.2063986584     1.3832612934     2.0148126305
C     1.6321334053     -0.0348103714     2.3284796154
C     1.8836598544     2.379198784     -0.1301912277
C     2.2060830521     1.9924705089     1.2736227318
C     2.453852295     0.8613854892     -1.96828308
C     2.9127811883     -0.5258361912     -1.6358568164
C     2.8715881447     1.7284164506     -0.9460346403
C     3.0778326235     -1.2264630487     0.7255806681
C     2.9068875981     -0.2294083169     1.7941634485
C     3.3219573123     1.0629371062     1.2346667956
C     3.6248598256     -0.5028396312     -0.4409648182
C     3.730660489     0.9050351327     -0.0634717364


