44

 C     -3.5333378849     -1.0344515163     -0.750697435
C     -3.7124642328     -0.2334033439     0.4044727487
C     -3.3043240604     1.0978807401     0.1491207893
C     -2.8726095596     -0.1766669645     -1.763979988
C     -2.8256777239     1.1713333931     -1.2399769115
C     -1.6765119081     -0.7910465393     -2.181810478
C     -2.6344269005     -2.0483954819     -0.3994735428
C     -1.5738847387     -2.0395743699     -1.3677989603
C     -2.9432001705     -0.7626402086     1.5229821283
C     -2.2503320529     -1.907441335     1.0476256483
C     -2.4527194074     1.5258628518     1.2347037689
C     -2.1967952723     0.3298919553     2.0863640967
C     -1.4009356508     2.397885259     0.9604731501
C     -1.6845449938     1.9284725376     -1.4929697014
C     -1.1246501035     2.7216629689     -0.4171564046
C     -0.4613611891     -0.0336543808     -2.433220944
C     -0.5375831783     1.3638854253     -2.2005784968
C     0.8705300212     -0.7106410703     -2.2994123025
C     -0.3351115638     -2.4847506583     -0.9988503796
C     0.8767887001     -2.0090425364     -1.6574462765
C     -0.8925995635     -2.1387440476     1.4200796303
C     -0.0241498114     -2.752842216     0.4249843703
C     -0.8936742854     0.1038126253     2.5171718117
C     -0.2497780809     -1.1804047209     2.2891690543
C     -0.0911132859     2.2612223258     1.6180050258
C     0.1537155691     1.1268794832     2.3844176003
C     0.2673648835     2.865666634     -0.5923489458
C     0.6587643869     2.0864608832     -1.7449736039
C     0.9466835077     2.6921262991     0.673569113
C     2.0634024594     0.0798924944     -2.1477261738
C     1.9052727633     1.4994584426     -1.7502047522
C     3.1907326459     -0.4099120131     -1.3999555666
C     1.9493512924     -2.3863718006     -0.802862706
C     1.3523544578     -2.6584474709     0.5307038558
C     3.0705104338     -1.592079774     -0.6426318262
C     1.1854750739     -0.9723105932     2.2717073794
C     1.4534238402     0.4613026775     2.3331213352
C     2.025062102     -1.8110576722     1.4847990496
C     3.1620968528     -1.2363770974     0.8244039102
C     2.2089090189     2.1191582072     0.6754248003
C     2.7995556842     1.7600828055     -0.6237899339
C     3.5828955729     0.629622236     -0.4552793671
C     2.517952244     1.0201096396     1.6006533133
C     3.4309431084     0.1275849264     0.9091951168


