44

 C     -3.3507112591     -0.0000270517     -1.2776806205
C     -3.2256489072     -1.189806686     -0.4302497557
C     -3.1190591808     -0.7448526331     0.8895092196
C     -3.2256781518     1.1897527043     -0.4302452092
C     -3.1190677789     0.7447900448     0.889505306
C     -2.1776811859     2.0278398423     -0.9488040569
C     -2.2436662612     -0.000014525     -2.1064845968
C     -1.515876583     1.2701191656     -2.0122917465
C     -2.1776504444     -2.027880422     -0.9488120277
C     -1.5158518024     -1.2701364942     -2.0123013224
C     -1.3636102442     -2.7296679862     -0.0347075493
C     -2.0623138012     -1.1848190348     1.7630421785
C     -1.2653354458     -2.2656292292     1.3728315122
C     -2.0623304626     1.1847752661     1.7630464776
C     -1.427193601     -0.0000177491     2.3535557526
C     -1.3636590059     2.7296510414     -0.0346988833
C     -1.2653757691     2.2656005585     1.3728440654
C     -0.0700074128     3.0613075171     -0.4550156867
C     -0.1172909922     1.3032303394     -2.1962687278
C     0.5669188703     2.4196186104     -1.5552866379
C     -0.1172720363     -1.3032212434     -2.1962762168
C     0.6303217183     0.0000139007     -2.3868975481
C     -0.069950135     -3.0613053161     -0.4550312539
C     0.5669609077     -2.4196021135     -1.555292921
C     0.1397717618     -2.3175508778     1.7623714688
C     0.8525159277     -2.9931752622     0.7089636591
C     -0.0536187437     -0.0000062061     2.6114745046
C     0.7540999225     -1.1860112253     2.3471886671
C     0.1397305275     2.3175463117     1.7623821813
C     0.8524609436     2.9931894389     0.7089777401
C     0.7540776413     1.1860132021     2.3471937429
C     1.9531118453     2.2951305688     -1.1824921
C     2.0892266864     2.5801141814     0.2856754857
C     2.0096558439     0.0000244421     -2.0983549696
C     2.6425156543     1.1560263185     -1.4584499492
C     1.953156377     -2.2950923723     -1.1825017286
C     2.0892770656     -2.5800814736     0.285665575
C     2.6425359573     -1.1559743617     -1.4584517011
C     2.0764745225     -0.7407189753     1.9129996388
C     2.0764601046     0.7407455794     1.9130007366
C     2.7520435267     1.451044317     0.8947552568
C     3.3077259939     0.6826928594     -0.2115668521
C     2.7520702713     -1.4509999739     0.8947499767
C     3.3077401352     -0.6826339976     -0.2115690843


