44

 C     3.7128654219     0.034914837     -0.718813298
C     3.2110945011     1.3122063515     -0.4764842952
C     2.9129531779     1.4642131551     0.9393139464
C     3.5271435512     -0.7347102701     0.5275010594
C     3.0135353525     0.1333431885     1.5308834527
C     2.7845559223     -1.8833056205     0.219413481
C     2.8291386381     -0.5778112629     -1.7041243376
C     2.4057043582     -1.823056181     -1.211326276
C     2.1350617048     1.5993035977     -1.4430459113
C     1.836177479     0.3608179292     -2.1701581317
C     1.1038859501     2.4229349476     -1.061688774
C     1.7079843928     2.0438688294     1.3343040569
C     0.9298764149     2.7449565674     0.3743939843
C     1.7840313937     -0.150836079     2.2015673009
C     0.9712117959     1.0611713102     2.1690463874
C     1.6257665064     -2.2751760915     0.9491194075
C     1.100258536     -1.4074116545     1.9931449632
C     1.0701014844     -2.2444693915     -1.3457559872
C     0.6760274464     -2.7815367221     -0.0316726417
C     0.4692637541     -0.0377069288     -2.3663939159
C     0.1150092258     -1.4362391284     -2.0560931899
C     -0.2312076836     2.2416530156     -1.6155038597
C     -0.5882577348     1.0037018564     -2.2401341498
C     -0.43756052     2.920786703     0.5913851796
C     -1.1388969031     2.8437944713     -0.6643060156
C     -0.4617626106     1.0682877343     2.2617245997
C     -1.1861752408     2.1408875946     1.5736938585
C     -0.3247914016     -1.4211218432     2.2203509292
C     -1.1232482307     -0.1934943227     2.3829896862
C     -0.6599718808     -2.9249878477     0.2968128351
C     -1.1385924463     -2.3253562058     1.5217262506
C     -1.2737219418     -1.7586203153     -1.7991251442
C     -1.6318683024     -2.5692426065     -0.6862267129
C     -1.9907015509     0.5897109313     -2.1008151475
C     -2.30111669     -0.7686697072     -1.9382449796
C     -2.4126340209     2.3297048338     -0.4089345836
C     -2.4616202389     1.8927323878     1.0306150901
C     -2.8923619993     1.2986247462     -1.1812249246
C     -2.4678311954     -0.4206353065     1.8478201745
C     -2.4763445921     -1.758002342     1.3185422036
C     -2.8199156447     -1.9910204826     -0.0216065058
C     -3.2989804034     -0.9454839017     -0.8407179592
C     -3.0906183087     0.6152320653     1.0844710816
C     -3.5134664665     0.3060461582     -0.2864251876


