44

 C     3.293659886     1.4826807741     0.5136189599
C     3.5560657956     0.1252818225     0.7669441849
C     3.5770922698     -0.526416795     -0.5282042835
C     2.8643259618     1.6231668533     -0.8932162468
C     3.0451116638     0.4068046483     -1.5477066655
C     1.595269737     2.2671437435     -0.9125266335
C     2.2119356723     1.9256932979     1.3231279347
C     1.2792481807     2.612749569     0.4874389155
C     2.5841540996     -0.3209445549     1.7726903042
C     1.7178839554     0.8285399627     2.1103301907
C     1.968043496     -1.5662194987     1.6116361194
C     2.9515726294     -1.7500050604     -0.7015925317
C     2.2638480864     -2.3367750647     0.3785710294
C     1.9012299434     -0.2545158277     -2.1628837225
C     1.9501212801     -1.6245391829     -1.8097764215
C     0.5176011512     1.7852405911     -1.7445208651
C     0.6030806478     0.4135080279     -2.2716195273
C     -0.7776075082     2.3136658831     -1.4281616171
C     -0.043602685     2.6757376463     0.8944071655
C     -1.0286468478     2.8590307484     -0.1016394301
C     0.2938416619     0.6790059682     2.3301353119
C     -0.5635826955     1.7555337331     1.9111098054
C     0.5635798589     -1.755363248     1.911457041
C     -0.2938583509     -0.6787709097     2.3302997121
C     1.0287301822     -2.8589648503     -0.1012569455
C     0.7776457971     -2.3137013695     -1.4279117598
C     0.0436322546     -2.6755295865     0.8948205304
C     -0.6030577245     -0.413650955     -2.2715103357
C     -0.517578287     -1.785307141     -1.7442650631
C     -1.9501323991     1.6243461213     -1.8098654951
C     -1.90122842     0.2543625688     -2.1628134434
C     -2.2638110259     2.3366525303     0.3783049113
C     -1.9680494749     1.5663560756     1.6114554013
C     -2.9516357914     1.7499082372     -0.7017027914
C     -1.7179096427     -0.8283214478     2.1105795552
C     -2.584127328     0.3210502603     1.7727030972
C     -1.2791962139     -2.6126366972     0.4878383958
C     -1.5952271538     -2.2671092271     -0.9121730198
C     -2.2119441277     -1.9255381547     1.3234112313
C     -3.0451134168     -0.4069474558     -1.5474751963
C     -3.5771255374     0.5262648885     -0.5281641043
C     -3.5560754817     -0.1253516414     0.7670496973
C     -2.8643391558     -1.6232881372     -0.892873906
C     -3.2938259429     -1.482827146     0.5139325106


