44

 C     3.8398925028     -0.2170030603     -0.5520350246
C     3.3460627539     -1.4766626317     -0.6956000636
C     2.7367594937     -1.9234888459     0.5688096303
C     3.576928927     0.2342633674     0.8354887664
C     2.8442532215     -0.8251457087     1.5298669813
C     2.9904288104     1.4843098008     0.7212486494
C     3.1347103222     0.6785878537     -1.498798306
C     2.7118235015     1.7564971388     -0.7308524546
C     2.3081200914     -1.4796506958     -1.731184313
C     2.1095432274     -0.1044492143     -2.1757109343
C     1.4816308612     -2.4379301399     0.2587690731
C     1.2138464572     -2.1602404589     -1.2031990416
C     0.3750817507     -2.2816432353     1.1589357305
C     1.6789449154     -0.478379113     2.2471665758
C     0.4910783672     -1.3001471661     2.1955291769
C     1.8153435067     1.8611213061     1.441509975
C     1.197909896     0.9197743842     2.2845207708
C     1.4137566514     2.30307498     -0.8408744647
C     0.9287348164     2.5632282275     0.5102466995
C     0.7725003912     0.3925642491     -2.3235259019
C     0.4735405032     1.7406776131     -1.7852160808
C     -0.1076572708     -1.8533322209     -1.634515536
C     -0.3335692539     -0.5838030693     -2.3187819368
C     -0.9147349929     -2.525923658     0.605375368
C     -1.1504551645     -2.4095967472     -0.8150673261
C     -2.1085544051     -2.0311669283     1.2660419595
C     -0.6846637008     -0.4741655348     2.5097996032
C     -0.2461993889     0.9117000328     2.4525112865
C     -1.9622382966     -0.8183979358     2.0928783967
C     -0.433209074     2.6690970988     0.7727236576
C     -1.066591359     1.8540336552     1.81594108
C     -0.8852858566     2.128258926     -1.5899815379
C     -1.318127533     2.6875928721     -0.3328482941
C     -1.69320824     -0.0904133619     -2.3101177889
C     -1.9392432971     1.2597231844     -1.9959040834
C     -2.5259882842     -2.0038193372     -0.972565528
C     -3.1475057205     -1.8626814021     0.3600902727
C     -2.7728116136     -0.851753156     -1.6899955014
C     -2.8907693896     0.1758275345     1.5501451187
C     -2.4103407281     1.5011799035     1.3532442036
C     -2.5959284928     2.1250436931     0.0590397266
C     -3.0666120852     1.3544807438     -1.0270623325
C     -3.6032367167     -0.4902139649     0.468358019
C     -3.5839601045     0.0789700213     -0.8344032709


