44

 C     3.1129414443     -1.8723510875     -0.1059159454
C     3.4533475192     -0.5252882     0.2296431263
C     2.9545657596     -0.2283445087     1.5299587612
C     2.1594030309     -2.3003378162     0.9118056887
C     2.122502928     -1.3605584622     1.9563901526
C     0.9236610144     -2.769564517     0.3246794897
C     2.3217550087     -1.7846264852     -1.2827780081
C     1.0723113005     -2.5021711954     -1.1007562018
C     3.0611441189     0.3557067738     -0.8620917172
C     2.2819930161     -0.4531139048     -1.8112342589
C     2.6456656914     1.6541963901     -0.5636338581
C     2.2334090623     0.9670166873     1.7851049068
C     2.2615246569     2.0104441261     0.8286299855
C     0.8649083001     -0.8534326955     2.389870611
C     0.9475339832     0.5999999107     2.3885309083
C     -0.3339590834     -2.5402842724     0.9624815236
C     -0.3719996777     -1.5297447488     2.0542188247
C     -1.4927165454     -2.6272000024     0.0915927239
C     -0.0408702382     -2.149811967     -1.8612115701
C     -1.3020049554     -2.429111409     -1.3153861111
C     1.0443931545     0.0664545087     -2.3765891381
C     -0.1057492606     -0.808564007     -2.478111898
C     1.6706823935     2.2875756544     -1.4097143468
C     0.7549291635     1.4507338445     -2.2120302479
C     1.1432870807     2.89020277     0.7217279184
C     0.9208072931     3.2210576601     -0.6806360725
C     -0.2187181083     1.3892056971     2.168650843
C     -0.1087990213     2.5548887046     1.3228802756
C     -1.5519239572     -0.746212376     2.1994352038
C     -1.482579445     0.6979152638     2.2096229469
C     -2.7218819368     -1.9718738067     0.4216560511
C     -2.7844865488     -1.0914596623     1.4853704043
C     -2.2385584698     -1.4069833981     -1.7734517929
C     -1.4582596594     -0.3352229851     -2.3614406444
C     -3.1923258355     -1.1927161559     -0.7960558647
C     -0.5968513828     1.9127411587     -1.9578675435
C     -0.4526705419     2.9202705824     -0.9351556227
C     -1.1658798754     2.7673909772     0.2924194549
C     -1.7270342487     1.0300866573     -1.9332787586
C     -2.6179459201     1.1860000346     1.4491081977
C     -3.4598888656     0.1392066714     1.0789995973
C     -3.4820470499     0.1244481622     -0.3721870159
C     -2.3215347027     2.0150089802     0.284142901
C     -2.72208259     1.238420448     -0.8973928796


