44

 C     3.3989671595     0.8569944489     -0.9671372906
C     3.3345772232     1.0176177702     0.4942664407
C     3.3410221385     -0.2487884148     1.0764276028
C     3.2130264907     -0.5426656035     -1.2702421566
C     3.3138373841     -1.2481731938     -0.050162014
C     1.998089897     -0.6855206767     -2.051099476
C     2.3406499857     1.5738414328     -1.5092127766
C     1.4607545716     0.6477229325     -2.2407074237
C     2.2835447613     1.9611859623     0.8137789758
C     1.7172352455     2.3861414681     -0.4836013046
C     1.3704146851     1.6570521254     1.8357910154
C     2.3072490572     -0.6255099344     2.0037033255
C     1.3550012643     0.3275535798     2.4347128425
C     2.3737370823     -2.2203797785     0.2726951096
C     1.8067475073     -1.9119826367     1.5737018397
C     1.0597339581     -1.7468186976     -1.782981819
C     1.2751425444     -2.5562488858     -0.6014480748
C     -0.3133911234     -1.5183413001     -2.1931905325
C     0.0628600442     0.9366776637     -2.3666295432
C     -0.8306031824     -0.162021562     -2.5021701666
C     0.3824566845     2.7160823847     -0.6019544228
C     -0.4476004898     2.1313560296     -1.6880950909
C     -0.0122001397     2.1273101894     1.7497917302
C     -0.4531784719     2.7861364146     0.5757466004
C     -0.043056316     -0.048098767     2.586845467
C     -0.8727893162     1.126779758     2.328772444
C     0.4352020333     -2.2401441032     1.5798590853
C     0.1400959942     -2.8219665498     0.2587429672
C     -0.5180112028     -1.3435666607     2.1818274996
C     -1.3543262404     -2.2028842094     -1.5680409018
C     -1.1521539662     -2.7561821594     -0.2528715087
C     -2.2312494113     -0.075492394     -2.1128581031
C     -2.5662229453     -1.3519792113     -1.5469335957
C     -1.7828027767     2.1888394296     -1.2939477996
C     -1.8083504146     2.6228361937     0.1328274301
C     -2.7087214893     1.1044663265     -1.4545203346
C     -2.2352221974     1.0059646653     1.9130784243
C     -2.7093161414     1.8410929613     0.8074850501
C     -3.390055701     0.9627283242     -0.1798186218
C     -1.903580162     -1.4436041519     1.7194514061
C     -2.1951232708     -2.2028749401     0.5617320834
C     -3.1555969602     -1.4558466654     -0.2873741826
C     -2.7567351721     -0.2813592697     1.6848954148
C     -3.5300556211     -0.2879282948     0.4188653854


