44

 C     0.0001365184     -3.1949248246     -1.3448603102
C     1.1750367319     -3.0448488926     -0.5044628527
C     2.0652913331     -2.0795177795     -1.0770867253
C     0.0000803889     -2.0798497916     -2.1738911222
C     1.2788877264     -1.367357159     -2.0924725018
C     -1.2787907075     -1.3674735322     -2.0924560602
C     -1.1747664198     -3.0449557062     -0.5044475755
C     -2.06511657     -2.0797062576     -1.0770595886
C     0.7368234589     -2.8713583032     0.842690565
C     -0.7365511736     -2.8714254807     0.8427004986
C     1.4329764118     -1.946012039     1.6796705741
C     2.9004508774     -1.3454843755     -0.2073459327
C     2.6136137954     -1.3581681013     1.2140134923
C     3.1891483868     -0.0062448828     -0.5636014508
C     1.3061106874     0.0346835245     -2.2021683579
C     2.453831507     0.6922528226     -1.5528246367
C     -1.3061426093     0.0345643233     -2.202151324
C     -0.0000510718     0.7887378194     -2.337340549
C     -2.4539149825     0.6920294343     -1.5527922743
C     -2.9003307786     -1.3457484175     -0.2073076933
C     -3.1891550795     -0.0065349945     -0.5635596847
C     -1.4327770755     -1.9461426692     1.6796894171
C     -2.613474174     -1.3584059342     1.2140476099
C     0.6844335113     -0.8953562589     2.4119194527
C     -0.6843203261     -0.895418635     2.4119283779
C     2.6777065903     0.0316010458     1.7022787562
C     3.2078411971     0.8314677946     0.6827749766
C     1.4329133954     0.3723821065     2.3164557953
C     2.3059177915     2.0412870386     -1.0639988929
C     2.6234549969     2.0499195319     0.4039387213
C     -0.0001101012     2.1426884377     -1.9387503094
C     1.1537250635     2.7303407389     -1.2583851876
C     -2.3061175619     2.0410772704     -1.0639686327
C     -1.1539901428     2.7302356711     -1.2583698303
C     -3.2079079289     0.8311758981     0.6828171177
C     -2.6776870807     0.0313572948     1.7023138967
C     -1.4329169323     0.3722515807     2.3164745155
C     -2.6236363834     2.049680829     0.4039732928
C     0.7560704697     1.6073910412     1.9974824374
C     1.4561304263     2.5030249278     1.0942375163
C     0.6773834288     3.1933154348     0.0740682082
C     -0.6776731267     3.1932538384     0.0740771643
C     -0.7561905704     1.6073222445     1.9974923635
C     -1.4563438976     2.5028923859     1.0942567433


