84 

C -1.606460 -3.251860 1.908130
C -2.421330 -3.172590 0.733360
C -3.549710 -2.312460 0.785770
C -4.111010 -1.771630 -0.389510
C -3.575690 -2.116610 -1.635420
C -0.393200 -3.789570 -0.601920
C -1.826410 -3.490290 -0.533450
C -2.478410 -3.008070 -1.705800
C 0.273590 -3.597610 -1.862950
C -0.399210 -2.950050 -2.975070
C -1.716640 -2.635750 -2.889430
C 0.401820 -3.793990 0.573210
C 1.834750 -3.493620 0.506280
C -0.265390 -3.611650 1.835620
C 2.486240 -3.019870 1.682110
C -4.315440 0.578840 -1.062710
C -3.723810 0.241040 -2.351240
C -4.503330 -0.395910 -0.111300
C -3.395930 -1.074290 -2.653870
C -2.198530 -1.344840 -3.370370
C -2.832740 1.291420 -2.713090
C -1.613970 1.046430 -3.363570
C -1.292750 -0.321560 -3.728120
C 1.079700 0.292860 -3.923090
C 0.105300 -0.702720 -3.941390
C 0.525910 -2.033290 -3.605230
C -2.602930 3.237910 0.916420
C -3.540910 2.212000 0.686710
C -3.806260 1.885650 -0.672960
C -2.954470 2.340930 -1.705600
C -1.895160 3.234920 -1.448800
C -1.825170 3.782270 -0.147850
C 0.560630 4.198870 -0.379900
C -0.554020 4.195850 0.409210
C 0.749060 1.669680 -3.602400
C -0.541770 2.041020 -3.209170
C -0.683110 3.137150 -2.259400
C 0.484200 3.746080 -1.756330
C -3.718830 1.169880 1.706360
C -4.186360 -0.119440 1.283360
C -1.778870 3.252500 2.118370
C -1.909720 2.238900 3.043190
C -2.915180 1.209810 2.857800
C -0.477450 3.732910 1.782300
C -0.741910 1.642800 3.612680
C 0.548980 2.017120 3.222120
C 0.690220 3.120220 2.280650
C 2.962050 2.328370 1.720340
C 1.902420 3.223960 1.470520
C 1.832010 3.780870 0.173800
C -2.405770 0.005390 3.452320
C -2.743680 -1.255630 2.924750
C -3.673650 -1.299470 1.845980
C -1.775020 -2.294710 3.014210
C -1.072380 0.263840 3.922980
C -0.097700 -0.731660 3.934280
C -0.518260 -2.059780 3.588830
C 1.724350 -2.656460 2.868600
C 0.406690 -2.971830 2.952650
C 2.840380 1.271540 2.719990
C 1.621570 1.021780 3.368880
C 1.300380 -0.348690 3.723690
C 2.206200 -1.368880 3.358500
C 4.323480 0.570760 1.064450
C 3.731910 0.223860 2.350740
C 3.403580 -1.093290 2.644000
C 4.511360 -0.397020 0.105950
C 2.609830 3.244200 -0.894410
C 3.548470 2.216790 -0.672700
C 3.814180 1.880460 0.684320
C 2.922360 1.230920 -2.850660
C 1.916640 2.261520 -3.028180
C 1.785480 3.268100 -2.095900
C 4.194440 -0.110180 -1.286730
C 3.726410 1.182280 -1.699940
C 1.782900 -2.272210 -3.033050
C 3.681710 -1.285800 -1.858300
C 2.751540 -1.233650 -2.936630
C 2.413230 0.031400 -3.454850
C 3.582940 -2.128160 1.617810
C 4.118400 -1.774640 0.374370
C 3.557710 -2.306570 -0.805250
C 2.429460 -3.167020 -0.758550
C 1.614640 -3.237360 -1.933760
