84 

C -1.578710 0.721020 3.575510
C -2.508730 1.451180 2.805150
C -3.602850 0.727850 2.284880
C -4.306420 1.174590 1.099020
C -3.883090 2.319650 0.461100
C -0.645530 3.054190 2.234990
C -2.050750 2.662830 2.132310
C -2.796250 3.102510 1.018320
C -0.111450 3.862040 1.225260
C -0.844740 4.144600 0.030960
C -2.151820 3.745490 -0.085900
C 0.298470 2.262800 3.039250
C 1.728790 2.270480 2.723540
C -0.214320 1.177240 3.755580
C 2.521880 1.188560 3.150060
C -4.551700 0.003670 -1.046930
C -3.999390 1.170740 -1.708000
C -4.704390 0.007030 0.335560
C -3.746960 2.330090 -0.988670
C -2.613250 3.133570 -1.323380
C -3.046370 0.731380 -2.685990
C -1.897290 1.462630 -2.982870
C -1.686490 2.737000 -2.306660
C 0.700840 2.654300 -2.973920
C -0.335300 3.292970 -2.231740
C 0.047710 4.030650 -1.099500
C -3.882600 -2.304740 0.473100
C -3.746920 -2.322490 -0.976660
C -4.306430 -1.156600 1.104970
C -3.999340 -1.166840 -1.701990
C -3.046330 -0.732870 -2.682220
C -2.613570 -3.128030 -1.307410
C -1.686960 -2.736990 -2.292910
C -1.897490 -1.466210 -2.975440
C 0.454090 1.398360 -3.674540
C -0.760560 0.731650 -3.564160
C -0.760590 -0.738700 -3.560580
C 0.454000 -1.406610 -3.667920
C -0.845350 -4.132510 0.052400
C -2.796130 -3.085070 1.034460
C -2.152270 -3.733870 -0.066570
C 0.046780 -4.024540 -1.078670
C 0.700380 -2.659220 -2.960840
C -0.335960 -3.293150 -2.214780
C -0.112080 -3.844570 1.245800
C -0.645960 -3.032160 2.252000
C -2.051180 -2.640750 2.146810
C -2.509440 -1.425680 2.813200
C -3.603190 -0.704390 2.288550
C -1.579090 -0.692040 3.579420
C 1.728650 -2.246630 2.736760
C 0.298290 -2.237100 3.052180
C -0.214610 -1.147560 3.762370
C 2.521930 -1.162580 3.157300
C 1.922570 0.014670 3.721220
C 0.578170 0.015540 4.020600
C 1.288190 -3.787670 0.875060
C 3.373660 -2.586050 0.886950
C 2.208710 -3.023740 1.593240
C 2.032100 -2.657970 -2.527030
C 2.384440 -3.238140 -1.267160
C 1.379250 -3.915140 -0.552920
C 3.425230 -2.628330 -0.519830
C 4.553000 -0.705140 0.114510
C 4.114530 -1.417140 1.310570
C 3.694940 -0.722040 2.416290
C 4.553660 0.714710 0.110400
C 2.663790 -1.409990 -2.977510
C 3.611130 -0.722820 -2.170510
C 4.093690 -1.409830 -1.002120
C 2.664090 1.404250 -2.984680
C 1.706110 0.695220 -3.737890
C 1.706150 -0.704290 -3.734420
C 4.094460 1.413750 -1.009880
C 3.611520 0.720910 -2.174390
C 1.380410 3.922880 -0.573750
C 3.426340 2.635110 -0.534000
C 2.385460 3.241600 -1.284090
C 2.032720 2.654830 -2.540320
C 3.695020 0.743770 2.411960
C 4.115280 1.433270 1.302380
C 3.374660 2.600300 0.872730
C 2.209320 3.041740 1.576400
C 1.289050 3.802920 0.854900
