84 

C -4.003660 -1.396810 -1.416300
C -3.542000 -2.576470 -0.685780
C -4.422120 -0.273210 -0.722330
C -3.540020 -2.580470 0.690740
C -2.422050 -3.147570 1.393990
C -1.150180 -2.377370 -3.311510
C -3.188210 -1.243380 -2.577670
C -2.338770 -2.423350 -2.644010
C 0.004100 -3.071920 2.767310
C 0.002350 -3.573950 1.449450
C -1.263390 -3.596990 0.724930
C -1.265720 -3.592990 -0.731510
C -2.426150 -3.139810 -1.395110
C -0.004060 -3.056910 -2.774230
C -0.002160 -3.566120 -1.459160
C -0.717980 -1.137020 -3.932520
C -1.451010 0.054360 -3.741970
C -2.714150 0.017660 -2.996200
C -3.150770 1.198190 -2.265230
C -4.024590 1.021920 -1.173870
C -0.711850 1.257950 -3.772960
C 2.330760 -2.421680 -2.650090
C 1.140510 -2.376800 -3.314280
C 0.706730 -1.136590 -3.934200
C 1.439850 0.055230 -3.745610
C 0.699990 1.258400 -3.774860
C 2.421830 -3.137670 -1.401440
C 2.426170 -3.145430 1.387310
C 1.263590 -3.591940 -0.734840
C 1.265900 -3.596010 0.721550
C -1.164070 2.437850 -3.057920
C -2.327240 2.418730 -2.287450
C -2.370250 3.309000 -1.162100
C -3.141780 2.967980 0.016370
C -3.935610 1.864780 0.014560
C -0.004810 3.176130 -2.649880
C 1.222600 3.992250 -0.723440
C -0.003060 3.912670 -1.448140
C -1.226860 3.990990 -0.720520
C 3.180280 -1.241190 -2.585920
C 2.704780 0.019640 -3.002990
C 3.142510 1.200510 -2.272880
C 2.318730 2.420510 -2.293380
C 1.153670 2.438730 -3.061260
C 2.364960 3.310950 -1.167950
C -3.999990 -1.404790 1.428570
C -4.419560 -0.277190 0.741480
C -4.020450 1.015310 1.198600
C -2.367050 3.302150 1.194890
C -1.156290 2.420520 3.083860
C -2.320930 2.405640 2.315570
C -3.144150 1.185270 2.288930
C -2.706370 0.000540 3.012870
C -3.181670 -1.258200 2.588820
C 1.224270 3.987690 0.751790
C 0.000470 3.904010 1.478990
C -1.224980 3.986650 0.754520
C 0.001780 3.160890 2.676890
C -0.702280 1.236360 3.791220
C -1.441650 0.032880 3.755950
C -0.707670 -1.159220 3.938270
C -1.141000 -2.395960 3.311060
C -2.331490 -2.438250 2.646460
C 0.709540 1.236800 3.789730
C 4.021800 1.018220 1.189160
C 3.148110 1.187460 2.281740
C 2.712980 0.002440 3.006490
C 1.449940 0.033910 3.752560
C 0.717420 -1.158760 3.936460
C 3.933530 1.867820 0.005320
C 3.139380 2.970720 0.009130
C 2.367510 3.303840 1.189810
C 2.324200 2.407230 2.310610
C 1.161190 2.421190 3.081470
C 3.998880 -1.393460 -1.426630
C 4.418390 -0.269650 -0.733330
C 4.019040 1.025130 -1.183510
C 4.003210 -1.401710 1.418190
C 3.541810 -2.577290 0.681060
C 3.539720 -2.573410 -0.695320
C 4.420350 -0.273750 0.730460
C 1.150100 -2.395150 3.308040
C 3.187990 -1.255890 2.580720
C 2.338760 -2.436530 2.640220
