84 

C -1.320830 -3.992920 -0.749560
C -2.287110 -3.238140 -1.475690
C -3.346510 -2.609140 -0.744160
C -1.876680 -2.637010 -2.679710
C -0.491920 -2.638520 -3.060380
C 0.474130 -3.285970 -2.293000
C 0.008090 -4.076550 -1.191130
C -2.462540 -1.399480 -3.125920
C -3.412370 -0.723280 -2.348880
C -3.909420 -1.409420 -1.184400
C -4.334950 -0.674110 0.002260
C -4.333850 0.686570 0.006750
C -1.437110 -0.677140 -3.853310
C -1.435660 0.704190 -3.848590
C -2.459200 1.424840 -3.116640
C -3.410700 0.746850 -2.344020
C -3.906120 1.427610 -1.175170
C 1.014520 -0.716790 -3.545730
C -0.205750 -1.382470 -3.732850
C -0.202910 1.405760 -3.723620
C 1.016010 0.736220 -3.541010
C 2.096280 -1.453030 -2.889150
C 2.671480 -3.141560 -1.197290
C 1.829100 -2.731040 -2.252300
C 3.220660 -0.724410 -2.484060
C -2.452350 1.406500 3.131010
C -3.405160 0.732880 2.355760
C -3.903480 1.420510 1.192420
C -3.339360 2.618920 0.750790
C -1.310610 3.997370 0.751230
C -2.276850 3.244780 1.479870
C -1.864990 2.642660 2.683140
C -1.870740 2.658140 -2.662320
C -2.279840 3.253400 -1.454710
C -3.340940 2.623200 -0.727160
C -1.312220 4.001620 -0.724020
C -3.406430 -0.737220 2.350960
C -3.905870 -1.416410 1.183020
C -1.426550 0.681630 3.855800
C -1.427700 -0.699680 3.851040
C -2.454680 -1.417790 3.121520
C -0.193950 1.384130 3.731750
C -0.196640 -1.403760 3.722410
C 1.023250 -0.736790 3.536180
C 1.024800 0.716050 3.541020
C 0.019520 4.077980 1.189450
C 0.486070 3.286190 2.290080
C -0.479220 2.640840 3.060150
C 1.839920 2.728960 2.245550
C 2.106210 1.450610 2.881710
C 3.228240 0.720200 2.473490
C -1.869870 -2.652170 2.665350
C -2.283200 -3.246190 1.458590
C -3.344510 -2.613310 0.733660
C -1.319070 -3.996810 0.725660
C -0.484330 -2.655560 3.042580
C 0.479610 -3.298480 2.268750
C 0.010950 -4.082870 1.163600
C 2.120100 -3.796350 -0.015520
C 0.837060 -4.246260 -0.015210
C 3.226390 -0.738300 2.468570
C 2.103010 -1.469150 2.871850
C 1.834340 -2.743420 2.227940
C 2.674010 -3.148250 1.168630
C 3.763450 2.332850 0.733640
C 4.076200 1.162220 1.410660
C 4.554770 -0.005050 0.686980
C 4.073360 -1.175730 1.403100
C 3.758220 -2.341930 0.718950
C 0.846180 4.246140 0.011460
C 2.127990 3.793910 0.008120
C 2.680590 3.138340 1.188500
C -0.486260 2.658430 -3.043280
C 0.480860 3.299520 -2.272060
C 0.016740 4.084730 -1.165400
C 4.072390 1.170280 -1.416240
C 3.221900 0.734160 -2.479460
C 2.098850 1.466890 -2.879830
C 3.761310 2.336870 -0.730870
C 2.677390 3.144970 -1.177730
C 1.834360 2.741720 -2.235020
C 3.756660 -2.337820 -0.745330
C 4.553230 -0.001170 -0.701300
C 4.070300 -1.167820 -1.423290
