84 

C -2.570680 1.822780 2.786940
C -3.200140 2.191300 1.567970
C -2.611890 3.253460 0.851020
C -1.294740 2.321740 3.133640
C -0.620530 3.257290 2.319930
C -1.354710 3.797610 1.236390
C -3.962370 1.172050 0.832650
C -4.065290 1.279340 -0.575910
C -2.659380 0.465560 3.299320
C -3.374560 -0.481800 2.621190
C -4.058210 -0.130390 1.380220
C -1.387150 0.115940 3.889110
C -0.836590 -1.182100 3.730390
C 0.562030 -1.283030 3.826260
C 0.835380 1.168640 3.738310
C -0.563640 1.269130 3.830350
C 1.385490 -0.130180 3.892670
C 1.573600 2.173700 2.967120
C 1.457280 3.801720 1.125700
C 0.843800 3.211400 2.247950
C 2.860400 1.824640 2.513330
C -3.390210 -2.355270 1.276090
C -4.063810 -1.280660 0.551400
C -3.959430 -1.173350 -0.856990
C -4.056610 0.128930 -1.404830
C -2.693610 -3.318260 0.585810
C -1.573010 -2.183560 2.952260
C -2.858600 -1.832630 2.496370
C -1.452900 -3.802780 1.103270
C -0.841950 -3.217800 2.230010
C -2.605240 -3.252160 -0.871390
C -3.194330 -2.191500 -1.590330
C -2.563310 -1.822290 -2.807910
C -2.652460 -0.465030 -3.320290
C -3.370420 0.481440 -2.643970
C 0.687600 -4.230370 0.009330
C -0.675800 -4.231090 -0.043730
C -1.346830 -3.794730 -1.253510
C -0.611530 -3.253640 -2.335640
C -1.285520 -2.319420 -3.151200
C 1.294610 -2.332570 3.126090
C 0.622120 -3.264010 2.305760
C 1.358190 -3.799120 1.220980
C -2.697450 3.319100 -0.606420
C -3.391270 2.354980 -1.298670
C -2.856070 1.833010 -2.517410
C -1.378930 -0.113420 -3.906230
C 0.568500 1.287970 -3.837550
C -0.830150 1.185290 -3.745310
C -1.569560 2.185800 -2.969210
C -0.841460 3.221030 -2.244980
C -1.455840 3.805600 -1.120220
C 1.464200 -3.795340 -1.135710
C 0.852590 -3.205840 -2.259630
C 1.582460 -2.167360 -2.976880
C 0.844520 -1.163360 -3.749860
C -0.554100 -1.265610 -3.845670
C 1.393450 0.136210 -3.902460
C 1.298230 2.338340 -3.135490
C 0.622870 3.269080 -2.317010
C 1.356130 3.805140 -1.230830
C 0.682270 4.235660 -0.020850
C -0.681490 4.234910 0.028520
C 3.381960 -0.464220 -2.638080
C 2.665390 0.485240 -3.311320
C 2.575110 1.839760 -2.791610
C 3.204060 2.203410 -1.570760
C 2.614080 3.260830 -0.848120
C 2.704390 -3.311570 -0.616520
C 3.400000 -2.344220 -1.302260
C 2.867740 -1.816530 -2.519800
C 2.571590 -1.832270 2.784950
C 3.203200 -2.194890 1.565170
C 2.616050 -3.253030 0.841020
C 4.062200 0.127340 1.391690
C 3.376010 0.472950 2.632910
C 2.659190 -0.477600 3.304530
C 4.071790 -1.272160 -0.572170
C 3.966940 -1.172150 0.836790
C 2.699430 3.319490 0.609640
C 4.064960 -0.117720 -1.395190
C 3.967530 1.181670 -0.840600
C 4.069750 1.281890 0.568630
C 3.394800 2.353150 1.297070
