   70
C70 / DATE: 7/ 1/2024 / Origin: Program Fullerene / C70 from database
 C            1.57443099        0.01516313        5.32642141
 C            0.70853259       -1.14580752        5.39227012
 C            1.26875828       -2.14592977        4.51039703
 C            2.55716920       -0.20844039        4.27429606
 C            2.34407339       -1.53256819        3.74420766
 C            2.48619896        0.91106022        3.36202969
 C            0.75801685        1.13254807        4.90628445
 C            1.52228175        1.85484505        3.91283523
 C           -0.58909703       -0.77765360        4.84204634
 C           -0.54660021        0.62534419        4.50676026
 C            0.16313329       -2.71307193        3.76789619
 C           -0.90386768       -1.72141106        3.79251237
 C            0.46624757       -3.28020552        2.54682306
 C            2.34589078       -1.72968784        2.36507356
 C            1.71359703       -2.87925046        1.91235831
 C            2.48547928        0.67830160        1.98271251
 C            2.46695509       -0.63511156        1.48547377
 C            2.10462070        1.72848180        1.14697662
 C            0.80342897        2.61372573        3.01350931
 C            1.33933945        2.76054980        1.68210949
 C           -1.06066885        1.05650387        3.28492267
 C           -0.60281257        2.28303427        2.82396335
 C           -1.41155737       -1.25395960        2.57726935
 C           -1.54695246        0.12577531        2.34832125
 C           -0.53019420       -3.20698801        1.50318980
 C           -1.40844195       -2.12872806        1.48937303
 C            1.54328943       -3.07244212        0.49437885
 C            0.17695512       -3.52363798        0.28426528
 C            2.33128228       -0.84218816        0.09832131
 C            2.05620703       -2.13127380       -0.38451251
 C            2.07219116        1.54657460       -0.23395951
 C            2.22930651        0.26300738       -0.76548876
 C            1.45137895        2.53130948       -1.00654416
 C            0.24184555        3.26728877        0.89650006
 C           -0.95883986        2.71486183        1.49179556
 C            0.34275649        3.18369878       -0.47342250
 C           -1.95408138        0.56851490        1.07614910
 C           -1.75422444        1.90100196        0.69480299
 C           -1.89099649       -1.70139382        0.25629593
 C           -2.28596935       -0.37100117        0.09546926
 C           -0.42035973       -3.19640417       -0.91988656
 C           -1.61619079       -2.47902029       -0.87362752
 C            1.69739252       -2.30078016       -1.71503404
 C            0.43624354       -2.96993625       -1.98935472
 C            2.09076028        0.07045885       -2.14955458
 C            1.81223152       -1.19714267       -2.63757749
 C            1.54287976        2.45063519       -2.38936710
 C            1.82635040        1.15777830       -2.98089490
 C            0.49299680        3.07803682       -3.18353482
 C           -0.84666451        3.08939214       -1.17423500
 C           -1.82790297        2.23276190       -0.65997134
 C           -0.78145241        3.32912537       -2.53672594
 C           -2.72918426        0.06027965       -1.15967156
 C           -2.53002465        1.39731282       -1.52626991
 C           -2.23945578       -2.15201805       -2.06986238
 C           -2.97834529       -0.90870166       -2.13296959
 C           -0.10531455       -2.43332282       -3.21996504
 C            0.77999315       -1.36107137       -3.65397635
 C           -1.47708524       -2.25607838       -3.30623990
 C            0.92737001        0.98103523       -4.11760211
 C            0.23991396        2.24106510       -4.33989397
 C            0.25043443       -0.22972457       -4.27049825
 C           -1.82793445        2.81338665       -3.39181912
 C           -2.72820775        1.81876526       -2.84360233
 C           -1.19136474        2.23662890       -4.56735538
 C           -3.05630548       -0.54479124       -3.53361833
 C           -1.98675958       -1.25467588       -4.21902669
 C           -1.07061437       -0.25467676       -4.73630776
 C           -2.95011207        0.84852402       -3.89454242
 C           -1.84235065        0.97231788       -4.83109868
