   70
C70 / DATE: 7/ 1/2024 / Origin: Program Fullerene / C70 from database
 C            1.29172741        0.05299995        4.66496317
 C            2.61777583       -0.12919697        4.10754819
 C            2.67219654       -1.45944317        3.52899570
 C            0.50014808       -1.11773809        4.32302479
 C            1.32850206       -2.01302587        3.54369311
 C           -0.74272815       -0.66058468        3.74659605
 C            0.53445607        1.23116549        4.28424345
 C           -0.75285973        0.79016562        3.75988971
 C            1.19276027        2.28076018        3.65913990
 C            3.09297618        0.81006243        3.10484588
 C            2.44752178        2.02861208        2.95413876
 C            3.35706107       -1.36160579        2.25481714
 C            3.44425099        0.05048329        1.91508366
 C            2.99176860       -2.24891877        1.25878536
 C            0.82237597       -2.55734533        2.36409111
 C            1.73140880       -2.96818126        1.39449570
 C           -1.24067949       -1.29518636        2.62496079
 C           -0.49968512       -2.29665670        1.98396354
 C           -2.21569403       -0.62857239        1.90208509
 C           -1.34456597        1.47219480        2.68870480
 C           -2.10280748        0.75515657        1.75068320
 C            0.41144128        3.18416274        2.84017755
 C           -0.89213767        2.74794992        2.36699211
 C            2.31164013        2.58183101        1.62036304
 C            1.20834680        3.51273279        1.67092651
 C            3.01390175        0.48248459        0.65498083
 C            2.43308136        1.74577820        0.51042416
 C            3.05159153       -1.80032402       -0.11449278
 C            2.93849048       -0.43784556       -0.39412038
 C            1.26160398       -3.27047566        0.05228892
 C            2.25294104       -2.74225461       -0.87034468
 C           -0.98799263       -2.81008313        0.77674103
 C           -0.08973354       -3.13049334       -0.25118889
 C           -2.94079286       -1.36582904        0.98619053
 C           -2.32701878       -2.57590950        0.47137915
 C           -3.58095799       -0.68704203       -0.11878516
 C           -2.46857990        1.35384258        0.53302864
 C           -3.23720401        0.63359703       -0.39513865
 C           -1.01713340        3.21631022        1.00331110
 C            0.31254674        3.55793630        0.54118381
 C           -1.82958981        2.52621140        0.11578268
 C            1.76134926        2.06708903       -0.67517679
 C            0.71549830        3.00409715       -0.66265901
 C            2.43265809       -0.04348308       -1.63572284
 C            1.93000203        1.25117243       -1.79934204
 C            1.84926089       -2.37541429       -2.13822257
 C            2.14277847       -1.02706615       -2.58429228
 C           -0.46723395       -2.99979300       -1.59571965
 C            0.48820758       -2.66476388       -2.55030160
 C           -2.79148143       -2.75879789       -0.88619951
 C           -3.66734298       -1.64393058       -1.20730493
 C           -1.80690530       -2.86837763       -1.93782083
 C           -3.35076661       -1.19726766       -2.54736699
 C           -2.18085742       -1.94255474       -2.99881775
 C           -3.35651704        1.10464722       -1.70793593
 C           -3.42682134        0.15889872       -2.81789254
 C           -1.57873268        2.69701505       -1.24272152
 C           -0.25440033        2.91491059       -1.65142628
 C           -2.52792517        2.21640193       -2.13316278
 C            1.28339946        1.60295472       -2.98854490
 C            0.16833170        2.52459883       -2.91282721
 C            1.22730133       -0.73998665       -3.67015755
 C            0.14275977       -1.71332469       -3.59509202
 C           -1.18231117       -1.29648744       -3.73364483
 C            0.93594436        0.57876893       -3.96170383
 C           -2.62329556        0.68569202       -3.90283289
 C           -2.18514195        2.01856003       -3.52763069
 C           -0.80149245        2.15659121       -3.92298985
 C           -1.45296623       -0.06240316       -4.32576271
 C           -0.37365387        0.89452810       -4.50117636
