   70
C70 / DATE: 7/ 1/2024 / Origin: Program Fullerene / C70 from database
 C            1.19846449        0.11322504        4.99680771
 C            2.44796907        0.13924866        4.26302319
 C            2.53163713       -1.11038070        3.53196920
 C            0.41198750       -1.00350193        4.48477724
 C            1.20836590       -1.69294784        3.49114048
 C           -0.88174530       -0.49239782        4.09495419
 C            0.35871025        1.29345047        4.98736787
 C           -0.96641243        0.88042516        4.55946292
 C            0.75182700        2.43378516        4.17493793
 C            2.71269581        1.21791847        3.31703287
 C            1.85164740        2.30343541        3.23229377
 C            3.16426346       -0.82578707        2.26832134
 C            3.20351651        0.61251932        2.09381033
 C            2.77612899       -1.55338030        1.16250138
 C            0.65886454       -1.97132150        2.24004418
 C            1.52615023       -2.18604129        1.16726575
 C           -1.37689340       -0.78559798        2.82904525
 C           -0.67404396       -1.64206382        1.97297404
 C           -2.30551332        0.08990481        2.27692399
 C           -1.46467443        1.88159868        3.63653490
 C           -0.41452042        2.86276838        3.42735472
 C           -2.15766690        1.45934663        2.51367460
 C            1.38330178        2.73943956        1.92374086
 C           -0.00545920        3.13895817        2.05488587
 C            2.81630585        1.11724227        0.84931951
 C            1.77726097        2.05117866        0.77873864
 C            3.21352639       -1.06380302       -0.04912095
 C            3.04881924        0.30957941       -0.26443604
 C            3.08274401       -1.92224389       -1.12024225
 C            0.99701975       -2.59735452       -0.06116874
 C            1.88685213       -2.74469889       -1.12820776
 C           -1.18682314       -1.86238682        0.69119987
 C           -0.35534633       -2.35371571       -0.32829990
 C           -2.97002880       -0.28925376        1.11481252
 C           -2.45292016       -1.36241983        0.37718084
 C           -3.66439699        0.71939586        0.45050585
 C           -2.12898375        2.29387992        1.40680255
 C           -0.89206541        2.81180114        1.03256554
 C           -3.05260431        2.02966866        0.41751470
 C            0.95094960        2.07869624       -0.35221150
 C           -0.38635458        2.47707203       -0.22995668
 C            2.57730624        0.73851316       -1.50316998
 C            1.39579131        1.48808610       -1.53592278
 C            3.26643655       -1.38291112       -2.44633304
 C            2.98057239        0.02362999       -2.62633033
 C            1.38816365       -2.76895599       -2.48970913
 C            2.38949568       -2.12133794       -3.32783508
 C           -0.84654392       -2.47396319       -1.63885525
 C            0.03951385       -2.52697963       -2.72142453
 C           -3.04198971       -1.72402188       -0.83155241
 C           -2.20443670       -2.27020910       -1.88600352
 C           -4.19867861        0.47851663       -0.86907060
 C           -3.99716223       -0.82630691       -1.45579925
 C           -2.65435625        2.23552625       -0.95647940
 C           -1.29463478        2.20077130       -1.25990097
 C           -3.58628004        1.46579210       -1.75105109
 C            0.52242409        1.38690988       -2.62508763
 C           -0.85338468        1.56559600       -2.42934049
 C            2.23813688        0.15416413       -3.86101324
 C            1.95587329       -1.19200893       -4.34917163
 C            0.98778053        0.88221855       -3.83784405
 C           -0.35882633       -2.02743922       -3.96352849
 C            0.56636274       -1.22289784       -4.74209247
 C            0.07329907        0.14155575       -4.67581854
 C           -2.61477981       -1.65789207       -3.14534481
 C           -3.55752217       -0.60722351       -2.81686734
 C           -3.08622420        0.76385732       -2.90354773
 C           -1.77505242        0.96572603       -3.31322561
 C           -1.62826136       -1.34637916       -4.06614775
 C           -1.30557824        0.06242185       -4.25737361
