   70
C70 / DATE: 7/ 1/2024 / Origin: Program Fullerene / C70 from database
 C            1.67682731        0.02796315        4.39904929
 C            0.85034836       -1.16267185        4.33419846
 C            1.37794100       -2.02160488        3.28808724
 C            2.65160402       -0.05092841        3.32476325
 C            2.50904668       -1.33841403        2.68539597
 C            2.51185919        1.13031307        2.50105762
 C            0.82119673        1.16953166        4.13237602
 C            1.39106679        1.89412424        3.02046067
 C           -0.53277789       -0.73906951        4.24664138
 C           -0.54161064        0.69693203        4.00603110
 C           -1.41137053       -1.53540273        3.53096836
 C            0.48848968       -2.69571533        2.45060088
 C           -0.88285705       -2.62317830        2.71712724
 C            0.92172096       -3.07470671        1.17486929
 C            2.64491347       -1.41437295        1.30933438
 C            2.10443150       -2.52199020        0.67160920
 C            2.63172217        1.00378821        1.11635656
 C            2.88420737       -0.25398327        0.55921408
 C            2.05839032        1.98912026        0.31330044
 C            0.54016286        2.47276296        2.09643538
 C            1.08649070        2.82685434        0.87616760
 C           -1.33720876        1.20888218        2.98103020
 C           -0.83940198        2.23667583        2.16296610
 C           -2.47081510       -0.90088126        2.76782856
 C           -2.45456520        0.47807843        2.57169344
 C           -1.84421516       -2.87189570        1.65315781
 C           -2.77923410       -1.75980160        1.63649228
 C            0.01462073       -3.67394179        0.30232434
 C           -1.39913152       -3.39482075        0.45269275
 C            0.28999773       -3.69191024       -1.12060992
 C            2.49117192       -2.76004949       -0.63985583
 C            1.58079988       -3.43619529       -1.54991451
 C            3.00663281       -0.37410222       -0.82885788
 C            3.10287054       -1.66252251       -1.36472263
 C            2.20031668        1.90056161       -1.07396879
 C            2.67190627        0.71579777       -1.64977850
 C            1.61563441        2.86701905       -1.89416764
 C            0.34478598        3.67764988        0.07916296
 C            0.68494483        3.81499605       -1.31685544
 C           -1.66577038        2.80226743        1.18096790
 C           -1.10036934        3.62656586        0.19997909
 C           -3.27297341        0.99484369        1.57529177
 C           -2.93424807        2.26709225        0.97050932
 C           -3.13687761       -1.15986727        0.43215629
 C           -3.70614704        0.10550550        0.50674721
 C           -1.85148816       -2.78948658       -0.78894477
 C           -0.81627668       -3.01086944       -1.78198674
 C           -2.50965685       -1.56642307       -0.75372741
 C           -0.54008035       -2.02532720       -2.72725470
 C            1.76018839       -2.84509473       -2.86280867
 C            2.85800321       -1.89776806       -2.77170968
 C            0.63802822       -2.14473998       -3.46067071
 C            2.53932156        0.55230856       -3.03265989
 C            2.52753974       -0.77395351       -3.61223244
 C            1.18298711       -0.98929698       -4.13365018
 C            1.05279511        2.46178484       -3.16896056
 C            1.48409570        1.27059137       -3.71684490
 C            0.48196178        0.27047157       -4.02738256
 C           -0.54929504        3.74173251       -2.08247270
 C           -1.65382928        3.64288327       -1.14960388
 C           -0.37779671        2.69174430       -3.06797848
 C           -3.49540859        2.26226113       -0.37009865
 C           -3.84330384        0.89093263       -0.69925778
 C           -2.69908769        2.78772042       -1.45813281
 C           -2.31154918       -0.65939062       -1.80170968
 C           -1.19953769       -0.78973922       -2.64164661
 C           -0.73571309        0.32940977       -3.35580251
 C           -1.24371933        1.59605707       -3.05543459
 C           -3.07159809        0.50247061       -1.85981486
 C           -2.47110733        1.70242219       -2.40752755
