   70
C70 / DATE: 7/ 1/2024 / Origin: Program Fullerene / C70 from database
 C            1.51193141        0.01758879        4.73324387
 C            0.69572367       -1.17527340        4.61742633
 C            1.36792168       -2.09650247        3.72003339
 C            2.63829125       -0.12705988        3.82643643
 C            2.55036203       -1.42236092        3.20038717
 C            2.66179914        1.02904733        2.96988550
 C            0.71434346        1.14048572        4.26889673
 C            1.48135831        1.82943844        3.26357292
 C           -0.64852042       -0.75689470        4.28642237
 C           -0.58828697        0.64384647        3.89399684
 C           -1.42176685       -1.61409903        3.52620694
 C            0.60607835       -2.87318438        2.84584256
 C           -0.78738909       -2.74394178        2.84985798
 C            1.23670403       -3.38384494        1.71146540
 C            2.83754437       -1.54901396        1.84534115
 C            2.46962342       -2.75572053        1.26653613
 C            3.02006999        0.88093480        1.63365369
 C            2.96482537       -0.39573065        1.03879312
 C            2.80127519        1.99962317        0.84130895
 C            0.82299782        2.40550285        2.18571128
 C            1.64977405        2.82973525        1.16044328
 C           -1.13393553        1.03054246        2.66784686
 C           -0.47646638        1.97587250        1.86122347
 C           -2.36285960       -1.03934591        2.58794201
 C           -2.16641934        0.26357726        2.12724179
 C           -1.53826778       -2.98335901        1.62278213
 C           -2.67687338       -2.08245146        1.63335015
 C            0.45450912       -3.68144647        0.52165407
 C           -0.84780911       -3.21055448        0.43572365
 C            2.56452754       -2.92335012       -0.16131461
 C            1.33219698       -3.54961419       -0.61905765
 C            2.93873203       -0.50832736       -0.36897616
 C            2.78864771       -1.75279346       -0.97387174
 C            2.85534253        1.88406092       -0.59577814
 C            2.75381848        0.62479279       -1.16722456
 C            1.07078778        3.26916137       -0.08366617
 C            2.04044152        2.96586692       -1.11775133
 C           -1.02630699        2.30173001        0.60932222
 C           -0.27180339        3.01968690       -0.33250344
 C           -2.75149738        0.64218991        0.92144977
 C           -2.26253991        1.75901808        0.24121791
 C           -3.23950637       -1.70526209        0.43098092
 C           -3.51583563       -0.29814711        0.23094643
 C           -1.33140019       -2.67187216       -0.76640736
 C           -2.62951515       -2.17290248       -0.80086107
 C            0.86549041       -2.80689023       -1.76932970
 C            1.90806234       -1.86191368       -2.11931807
 C           -0.45934981       -2.37999171       -1.82575839
 C            2.16238140        0.49544260       -2.43072629
 C            1.53042355       -0.70118234       -2.76809257
 C            1.58760234        2.87884149       -2.41900643
 C            1.83167349        1.64632662       -3.14784428
 C           -0.72739320        3.14601066       -1.64625822
 C            0.20725475        3.23811730       -2.68407050
 C           -2.84434067        2.12420522       -0.97455545
 C           -2.06531793        2.89166190       -1.92852320
 C           -3.72469999       -0.13486961       -1.18869066
 C           -3.00584157       -1.22641763       -1.83609351
 C           -3.60936227        1.13479174       -1.72358787
 C           -0.78212756       -1.36702495       -2.73867208
 C            0.26368404       -0.65377071       -3.34138217
 C           -2.10728416       -0.92465301       -2.85341835
 C            0.80959125        1.56096040       -4.18273445
 C           -0.09562025        2.68263653       -3.98977956
 C           -0.00237576        0.36150378       -4.24910628
 C           -2.46109622        2.46546796       -3.26267233
 C           -3.21397111        1.23735931       -3.11354470
 C           -2.41154504        0.16248387       -3.67149767
 C           -1.43834789        2.21596714       -4.25754586
 C           -1.37011793        0.77528830       -4.46752264
