   70
C70 / DATE: 7/ 1/2024 / Origin: Program Fullerene / C70 from database
 C            1.26806373       -0.15219012        4.38101651
 C            2.43284708       -0.44768500        3.56357480
 C            2.40598868       -1.86621396        3.26867028
 C            0.40271498       -1.31961764        4.35804100
 C            1.12207698       -2.39210363        3.71503418
 C           -0.86681349       -0.91063013        3.79917786
 C            0.46170324        1.01203218        4.04811663
 C           -0.86671684        0.54016350        3.69665366
 C            1.03752818        2.01378717        3.28575565
 C            2.78633539        0.45209625        2.56184294
 C            2.33408968        1.76477382        2.67949640
 C            3.18141766       -0.02779500        1.30584915
 C            2.59245206       -2.29199792        1.89665707
 C            2.84937264       -1.33183394        0.92220046
 C            0.51186496       -3.05494810        2.57840287
 C            1.58633884       -3.30479075        1.63742911
 C           -1.46280680       -1.64761625        2.77630770
 C           -0.72789128       -2.62777399        2.08856070
 C           -2.55458469       -1.05886434        2.15340674
 C           -1.57167879        1.12545547        2.64531474
 C           -2.62650499        0.39407887        2.11672136
 C            0.22980387        2.69094885        2.28783495
 C           -0.96605609        2.11781108        1.86257618
 C            2.46363646        2.67097538        1.55763154
 C            1.14296592        3.23646880        1.30181352
 C            3.56761068        0.87879671        0.31976303
 C            3.25526270        2.28978998        0.48647522
 C            3.32007052        0.53741735       -1.07022171
 C            2.50081410       -1.59678306       -0.40623811
 C            2.53396469       -0.57208245       -1.34630968
 C            1.24832499       -3.57468664        0.32591083
 C            1.86615856       -2.78823317       -0.72852628
 C           -1.09073600       -2.99990895        0.78451099
 C           -0.15721566       -3.66566536       -0.01040364
 C           -3.01572990       -1.55847061        0.87588875
 C           -2.26368120       -2.50715388        0.20041792
 C           -3.20114236        0.77929587        0.84874257
 C           -3.57234741       -0.43461625        0.13845582
 C           -1.42468231        2.37483222        0.56086539
 C           -2.64521942        1.82744834        0.13418466
 C            0.70530182        3.38908773       -0.00742986
 C           -0.63315355        3.13894383       -0.31721669
 C            2.95101580        2.83366023       -0.82200862
 C            3.09690115        1.76518658       -1.79753164
 C            1.64717494        3.43131153       -1.03616873
 C            1.96520608        1.84038712       -2.69775119
 C            1.24603827        3.06164063       -2.38014934
 C            1.56719096       -0.52743717       -2.36398834
 C            1.23231032        0.69033200       -2.97944300
 C            0.96612020       -2.81566145       -1.86687859
 C           -0.22933589       -3.53899819       -1.44984264
 C            0.83698621       -1.68279177       -2.67136175
 C           -2.49227980       -2.67552735       -1.16647460
 C           -1.44250472       -3.20786723       -2.02237614
 C           -3.53238856       -0.44337538       -1.25387598
 C           -3.18311538       -1.62666925       -1.90628469
 C           -3.05666324        1.96955546       -1.18430118
 C           -3.44314899        0.77897117       -1.92867579
 C           -1.04716894        3.35530978       -1.62928045
 C           -0.09687556        3.12887337       -2.70382991
 C           -2.32173720        2.83622061       -2.07268087
 C           -0.01474249        0.83996090       -3.58961089
 C           -2.80994999        0.85318818       -3.24013539
 C           -0.65914620        2.07589322       -3.52838850
 C           -2.09260105        2.11076143       -3.31255471
 C           -0.26704862       -1.59419632       -3.51570043
 C           -1.42721964       -2.42475090       -3.24178228
 C           -2.59735878       -1.56737111       -3.23321428
 C           -0.75252459       -0.29023481       -3.92316438
 C           -2.20288192       -0.27891354       -3.75950093
