   70
C70 / DATE: 7/ 1/2024 / Origin: Program Fullerene / C70 from database
 C            1.30441067        0.10190435        4.99854327
 C            0.55888103       -1.10815711        4.70449307
 C            1.48721009       -2.06411026        4.14677502
 C            2.61283607       -0.02612281        4.37741177
 C            2.72954223       -1.36699752        3.85213466
 C            2.76874184        1.07767642        3.45704620
 C            0.61867059        1.21094330        4.35750089
 C            1.57459784        1.90380694        3.52570260
 C           -0.60349454       -0.74084802        3.91273856
 C           -0.57216472        0.69910836        3.72264992
 C           -0.98246123       -1.53666657        2.82904934
 C            1.08938116       -2.75752428        2.94415180
 C           -0.22707496       -2.67569933        2.50743792
 C            3.00680994       -1.53641486        2.43331731
 C            2.13529953       -2.58694885        1.94912957
 C            3.31663252        0.85615318        2.19836546
 C            3.21286240       -0.42461827        1.62546520
 C            3.29962039        1.95527839        1.35195414
 C            1.13854942        2.48761558        2.33887450
 C            2.13101881        2.81973798        1.42255003
 C           -0.92250769        1.19323203        2.47455533
 C           -0.14218174        2.17865506        1.85370729
 C           -1.79094909       -0.95576011        1.84226041
 C           -1.78243368        0.43190670        1.69091946
 C           -2.29814402       -1.75269999        0.81608170
 C           -0.48081651       -3.30279571        1.29969240
 C           -1.69005048       -2.98081090        0.57960638
 C            1.75222745       -2.60920004        0.60757035
 C            0.59558913       -3.32145225        0.31843374
 C            2.99069982       -0.55919947        0.25027325
 C            2.11307556       -1.54215758       -0.22859828
 C            3.62245485        1.76429753       -0.04322641
 C            3.42700990        0.44469053       -0.59946659
 C            1.76412914        3.17877594        0.06894851
 C            2.80560921        2.68940282       -0.80593660
 C           -0.51720645        2.59585532        0.57279910
 C            0.45054834        3.02204393       -0.34378090
 C           -2.30783156        1.00108639        0.53894684
 C           -1.76244506        2.20532353        0.08475367
 C           -3.04520750       -1.17098144       -0.21355077
 C           -3.10735657        0.22562178       -0.30208157
 C           -3.30167572       -1.95039110       -1.34508367
 C           -1.44022839       -3.38303533       -0.78873508
 C           -0.01300400       -3.20504866       -0.98798758
 C           -2.29631151       -2.90650036       -1.75868694
 C            1.49620866       -1.38632890       -1.48857748
 C            0.42242792       -2.21413826       -1.85918915
 C            2.78831172        0.61084711       -1.88690346
 C            2.39609129        2.00897157       -2.01414451
 C            1.90914245       -0.36096894       -2.35243544
 C            0.18984294        2.90407382       -1.71332480
 C            1.13698836        2.27770753       -2.53842581
 C           -2.16500741        2.72150179       -1.13992055
 C           -1.13700900        2.98750352       -2.12758567
 C           -3.77401866        0.84071620       -1.36178117
 C           -3.29961715        2.12997411       -1.81902868
 C           -3.78781934       -1.33428057       -2.56366293
 C           -4.10075576        0.07512391       -2.54810574
 C           -1.71809922       -2.35332799       -2.96632243
 C           -0.41353003       -1.85894798       -2.92411800
 C           -2.76864518       -1.55651581       -3.58192363
 C            1.08679843        0.00732737       -3.41350671
 C            0.69631790        1.40388738       -3.52409732
 C           -0.06448076       -0.80024062       -3.75025108
 C           -1.54968779        2.34500454       -3.36323281
 C           -2.95292927        1.99796902       -3.22612284
 C           -3.40618799        0.69193462       -3.66689948
 C           -2.43390574       -0.26925530       -4.16064652
 C           -0.67806120        1.45958535       -3.98116214
 C           -1.09523769        0.09290130       -4.26533694
