   70
C70 / DATE: 7/ 1/2024 / Origin: Program Fullerene / C70 from database
 C            1.45277359        0.14199077        4.81469028
 C            0.70779944       -1.08733004        4.65413016
 C            1.62540377       -2.06027056        4.10357108
 C            2.66377370        0.02629750        4.01138725
 C            2.76950126       -1.34083333        3.56341929
 C            2.61655031        1.06881519        3.01181347
 C            0.65364791        1.21079814        4.24719125
 C            1.51401265        1.94403648        3.35482123
 C           -0.50847269       -0.78965275        3.90707474
 C           -0.55224115        0.64498540        3.67846759
 C           -0.89299387       -1.64670251        2.87966906
 C            1.13180457       -2.90456968        3.04645244
 C           -0.22089083       -2.86831699        2.73615080
 C            2.81576518       -1.60631115        2.13229867
 C            2.05855174       -2.81662612        1.93113030
 C            2.79634732        0.76242302        1.65755411
 C            2.65146116       -0.56357467        1.22643677
 C            2.51707890        1.78446588        0.75289957
 C            0.93391845        2.59856483        2.29156700
 C            1.78237997        2.86878453        1.24052590
 C           -0.96770748        1.12674326        2.43764207
 C           -0.39032974        2.30281658        1.94921820
 C           -1.60251129       -1.12129809        1.79029604
 C           -1.57995291        0.25720555        1.53610718
 C           -2.11614192       -1.99719490        0.83132383
 C           -0.58863463       -3.68703966        1.68613502
 C           -1.76041190       -3.34366575        0.91863578
 C            1.53047788       -3.09732635        0.67919887
 C            0.44697153       -3.96372312        0.70523488
 C            2.08426160       -0.83237317       -0.02926065
 C            1.55757376       -2.10239795       -0.31809785
 C            2.42618410        1.47222567       -0.60462951
 C            1.98821297        0.19694784       -0.96983066
 C            2.31238653        2.52441356       -1.50469812
 C            1.33303214        3.81578535        0.35065412
 C            1.90194320        3.80948913       -0.97348825
 C           -0.86678585        2.85030282        0.75256421
 C           -0.10731409        3.88656339        0.19796342
 C           -1.98342575        0.74085425        0.29009695
 C           -1.66444466        2.05800609       -0.09141791
 C           -2.65929987       -1.48972240       -0.35676061
 C           -2.67428746       -0.10793918       -0.57831454
 C           -2.89017053       -2.34433411       -1.43964876
 C           -1.63869154       -4.13611921       -0.28583360
 C           -0.21154011       -4.28705682       -0.52887471
 C           -2.21420423       -3.62099574       -1.49712081
 C            0.82017774       -2.29156571       -1.50223286
 C            0.10176406       -3.47991648       -1.68169599
 C           -1.12232927       -3.45330746       -2.44621559
 C            1.22478735        0.01691254       -2.13390017
 C            0.57955352       -1.20726219       -2.36328641
 C            1.60367729        2.32174039       -2.75209830
 C            1.03835546        1.08122749       -3.02757270
 C            0.90497332        4.38024441       -1.85249507
 C           -0.37013975        4.33318283       -1.14927871
 C            0.79502698        3.50569552       -2.99867010
 C           -2.01983347        2.53156820       -1.36811181
 C           -1.28014989        3.56066528       -1.95746794
 C           -0.61735470        3.31100643       -3.23298522
 C           -3.11958212        0.37560547       -1.80711389
 C           -2.73945668        1.71063334       -2.22851504
 C           -2.73791196       -1.81638974       -2.77343209
 C           -1.41876307       -2.26284311       -3.19565433
 C           -0.42948962       -1.29992854       -3.34258671
 C           -3.04302079       -0.48687018       -2.97996247
 C           -0.04411917        1.05146109       -3.90395531
 C           -0.98297571        2.17025213       -3.91642244
 C           -2.28054131        1.61482683       -3.60371405
 C           -0.82052169       -0.15886524       -4.02653758
 C           -2.22348759        0.21478573       -3.94444080
