   70
C70 / DATE: 7/ 1/2024 / Origin: Program Fullerene / C70 from database
 C            1.71514733       -0.00797176        4.65860074
 C            0.87225613       -1.17490521        4.48036289
 C            1.32259920       -1.88093446        3.29107101
 C            2.68759761       -0.00154431        3.58251010
 C            2.52102441       -1.21373163        2.80958670
 C            2.56788920        1.25592558        2.87847525
 C            0.87431530        1.16505509        4.49774133
 C            1.34650199        1.89900383        3.33563254
 C           -0.50726044       -0.73352210        4.53959586
 C           -0.50613722        0.72586893        4.52464751
 C           -1.43950239       -1.41857445        3.77325650
 C            0.37401752       -2.32229128        2.36640841
 C           -0.96887780       -2.32810066        2.73528186
 C            0.72076278       -2.38810351        1.01188448
 C            2.71967059       -1.13885731        1.43946939
 C            2.01208448       -2.01561212        0.63212784
 C            2.82111007        1.26279090        1.51735012
 C            3.16098480        0.06508086        0.88187617
 C            2.17843025        2.22753953        0.76212056
 C            0.42403890        2.34612875        2.38456079
 C            0.84218443        2.49596922        1.05670202
 C           -1.42210241        1.39954515        3.72695343
 C           -0.93685696        2.29127530        2.67822387
 C           -2.58479516       -0.70593019        3.23567311
 C           -2.56839023        0.68419987        3.19570482
 C           -1.99187292       -2.38770120        1.71095832
 C           -3.04204758       -1.44933370        2.07499893
 C           -0.26808676       -2.57668937        0.03338778
 C           -1.62355929       -2.49979658        0.37580516
 C            0.09875325       -2.71931479       -1.31016150
 C            2.39372089       -2.11139699       -0.69374445
 C            1.42160360       -2.52084837       -1.68633033
 C            3.42577369        0.10985732       -0.49187030
 C            3.19255791       -1.03635003       -1.25816849
 C            2.63714970        2.42108439       -0.52645742
 C            3.43820650        1.36084436       -1.11048745
 C            1.69172319        2.82961269       -1.53955758
 C           -0.09938542        2.51076024        0.01452760
 C            0.33729532        2.59364269       -1.30967621
 C           -1.89848827        2.26083174        1.59205786
 C           -2.98007692        1.37257824        1.98362921
 C           -1.44200301        2.24671235        0.27727199
 C           -3.71443938       -0.78313782        1.06127254
 C           -3.65275276        0.67233523        0.99553484
 C           -2.56823723       -2.18670478       -0.60132128
 C           -3.58038456       -1.27523359       -0.29871419
 C           -0.87738712       -2.67502141       -2.30045140
 C           -2.25541877       -2.40264832       -1.93610012
 C           -0.59261459       -1.97993274       -3.54981759
 C            1.71191120       -1.80591506       -2.92072727
 C            2.85160693       -0.93251394       -2.67120813
 C            0.65562849       -1.38874418       -3.73080563
 C            3.29946886        1.46769586       -2.55217866
 C            2.29326449        2.48730547       -2.81237484
 C            2.94390874        0.29050581       -3.31848578
 C            0.72472328       -0.15970369       -4.39201183
 C            1.44174636        2.00751543       -3.87115535
 C            1.90363765        0.67843367       -4.25043784
 C           -0.49344787        2.13174796       -2.34188317
 C            0.01857068        1.90738758       -3.62323127
 C           -0.42175748        0.73706873       -4.35256096
 C           -2.25528574        1.72895565       -0.73279477
 C           -3.41152904        1.02627822       -0.39191653
 C           -3.78384934       -0.13418945       -1.17400863
 C           -1.75968618        1.62612473       -2.03426933
 C           -2.80662370       -1.49626547       -2.92869059
 C           -1.77845063       -1.22712534       -3.91643861
 C           -1.66498617        0.21201481       -4.05330965
 C           -3.33103665       -0.22000363       -2.47804816
 C           -2.41453574        0.80097325       -2.95586623
