   70
C70 / DATE: 7/ 1/2024 / Origin: Program Fullerene / C70 from database
 C            1.04796793       -0.00060525        4.91705496
 C            2.39105002       -0.31827332        4.48404403
 C            2.33510504       -1.61373461        3.81768234
 C            0.23434910       -1.18309850        4.68782149
 C            0.94156191       -1.99732877        3.72133823
 C           -1.09231001       -0.72267881        4.35669572
 C            0.35130736        1.10988061        4.28919508
 C           -1.04208001        0.73152700        4.27581683
 C            0.89727445        1.72462435        3.15881932
 C            3.05576692        0.60470986        3.58736639
 C            2.26980651        1.62836702        2.91733723
 C            3.10316154       -1.51066195        2.59541117
 C            3.69310434       -0.18780275        2.55400865
 C            2.56772003       -1.99921510        1.41256474
 C            0.39278895       -2.20825253        2.45427716
 C            1.24807505       -2.46725932        1.37955174
 C           -1.70002974       -1.18562201        3.12598990
 C           -0.95523377       -1.91830713        2.20314663
 C           -1.84649187        1.11993480        3.14074893
 C           -2.48465055       -0.07652923        2.63537516
 C            0.05971289        2.20343174        2.13929535
 C           -1.33063281        2.00481426        2.20296615
 C            0.63817416        2.62973593        0.93727381
 C            2.75564383        1.71261683        1.54965443
 C            3.59486267        0.55245144        1.30674962
 C            1.87172813        2.11200020        0.55525249
 C            3.11778620       -1.52802421        0.22968527
 C            3.38488805       -0.15870812        0.13244845
 C            2.82039864       -2.23290785       -0.92421564
 C            0.70250210       -2.82861850        0.14373624
 C            1.56852220       -2.96716272       -0.94437910
 C           -1.42665222       -1.98006285        0.89023541
 C           -0.66124620       -2.62350888       -0.08009284
 C           -2.84062360       -0.06988524        1.29988633
 C           -2.50044464       -1.16332770        0.50494396
 C           -2.08634648        2.18546252        1.04403150
 C           -2.97332043        1.16499144        0.67955343
 C           -0.16278661        3.20569366       -0.03735020
 C           -1.59750636        3.05120436        0.07428063
 C            0.19003604        3.00444859       -1.43169974
 C            2.03510637        1.62393160       -0.74739113
 C            2.89000527        0.53918621       -0.96717119
 C            1.16235575        2.05841694       -1.75410577
 C            2.95226629       -1.55322163       -2.19591348
 C            2.88261873       -0.10569923       -2.19485114
 C            1.05388339       -2.92815769       -2.30386538
 C            1.91543235       -2.05646166       -3.07731323
 C           -1.19513922       -2.80356575       -1.35245474
 C           -0.31317484       -2.85342974       -2.50608265
 C           -2.95107323       -1.17307444       -0.81886563
 C           -2.37882546       -2.05333607       -1.73453994
 C           -3.58792924        1.18050258       -0.56387194
 C           -3.68538159       -0.07883202       -1.28138853
 C           -2.15206616        3.02712485       -1.26809770
 C           -1.03585768        3.07820424       -2.20546753
 C           -3.24351600        2.20940289       -1.52610073
 C           -1.10813710        2.40445559       -3.41600390
 C            1.10598512        1.39253659       -2.98603907
 C            1.92224852        0.28916396       -3.20369804
 C            1.32642506       -0.91956334       -3.75591382
 C           -0.02479489        1.51546394       -3.79426940
 C           -0.84296330       -1.93522677       -3.50724773
 C           -2.22197353       -1.65975071       -3.13059947
 C           -0.03675168       -0.91610171       -4.03030946
 C           -0.61062566        0.30819377       -4.35717557
 C           -3.71272328        0.22830032       -2.69999622
 C           -3.42500713        1.64724541       -2.85287067
 C           -2.35749717        1.78245812       -3.82318258
 C           -2.84258809       -0.50868981       -3.59561186
 C           -2.05324039        0.45620427       -4.33610281
