   70
C70 / DATE: 7/ 1/2024 / Origin: Program Fullerene / C70 from database
 C            1.24145917       -0.04000177        4.47035995
 C            2.59550695       -0.26973898        4.00463055
 C            2.64938058       -1.60201130        3.42818381
 C            0.45654847       -1.22422864        4.16468065
 C            1.30982978       -2.16675451        3.46881972
 C           -0.76480605       -0.79704803        3.51275524
 C            0.51696488        1.11637746        3.97230246
 C           -0.73025783        0.64963014        3.39134328
 C            1.21208063        2.13060828        3.33165023
 C            3.16882006        0.65530094        3.04418920
 C            2.57877921        1.89929294        2.86706413
 C            3.32778597       -1.51138637        2.14637578
 C            3.55276221       -0.10263332        1.86449867
 C            2.90530328       -2.34180813        1.12130871
 C            0.81640743       -2.79538181        2.32970800
 C            1.71693137       -3.15071343        1.32634108
 C           -1.23949617       -1.53125563        2.43530338
 C           -0.53817936       -2.66169550        2.00843081
 C           -2.11163749       -0.90717429        1.54904719
 C           -1.21356475        1.23077031        2.21835858
 C           -2.05375876        0.48223357        1.39747321
 C            0.53303434        2.89867882        2.30346378
 C           -0.62530290        2.39355135        1.71166253
 C            2.70111303        2.54698110        1.57327541
 C            1.57059700        3.45248457        1.45758753
 C            3.26080002        0.41580704        0.60139990
 C            3.08756058        1.79517809        0.46207176
 C            2.82040410       -1.81169566       -0.22716949
 C            2.85597987       -0.43965723       -0.43097555
 C            1.21663678       -3.50606185        0.01167446
 C            1.83267929       -2.59878486       -0.94435208
 C           -1.04159098       -3.38263310        0.92896938
 C           -0.12943012       -3.79520289       -0.12798770
 C           -2.78561422       -1.68295299        0.60982455
 C           -2.27201745       -2.93739608        0.28935699
 C           -3.66405167       -1.06435842       -0.27293753
 C           -2.62793778        1.08406575        0.28234136
 C           -3.57292455        0.37346855       -0.45548427
 C           -0.99570818        2.85629086        0.44411749
 C           -2.04777170        2.24158676       -0.24338470
 C            1.22037166        3.91065509        0.20068111
 C           -0.15536831        3.74362907       -0.23739202
 C            2.85849050        2.32228786       -0.80500486
 C            2.06705798        3.53517600       -0.91659140
 C            2.25271868        0.08436715       -1.57209052
 C            2.44416202        1.42576805       -1.87020018
 C            1.03091172       -1.98395026       -1.90446742
 C            1.24276053       -0.63552323       -2.22206401
 C           -0.77476307       -3.49115712       -1.39136951
 C           -2.18951924       -3.34046163       -1.10547462
 C           -0.16218213       -2.60536892       -2.27706424
 C           -3.89947820       -1.66778638       -1.57444307
 C           -2.99164435       -2.70176894       -2.03937487
 C           -3.74690975        0.65772825       -1.87010511
 C           -3.92101300       -0.60581614       -2.56515656
 C           -2.26763999        2.57669164       -1.57970878
 C           -2.96390397        1.64493650       -2.44861794
 C           -0.13525206        3.73945178       -1.69062017
 C            1.22214842        3.41519343       -2.08948973
 C            1.47001680        2.11757001       -2.69409913
 C           -1.16899488        3.10877485       -2.35861419
 C            0.39855615        0.01258929       -3.13355531
 C           -2.04489217        1.30079714       -3.53232206
 C            0.38685625        1.40782429       -3.19689062
 C           -0.83430028        2.07138700       -3.31841475
 C           -0.92626335       -2.05070172       -3.29492995
 C           -2.37083522       -2.22412017       -3.26368249
 C           -2.98420038       -0.95592276       -3.61545501
 C           -0.64852834       -0.69283394       -3.72370159
 C           -1.92167706       -0.02114789       -3.93605948
