   70
C70 / DATE: 7/ 1/2024 / Origin: Program Fullerene / C70 from database
 C            1.04329809       -0.15820827        5.03856153
 C            2.38861184       -0.47233865        4.59967807
 C            2.32358841       -1.71722882        3.84657491
 C            0.22018262       -1.32583862        4.77576421
 C            0.93318085       -2.14286956        3.81535017
 C           -1.09753008       -0.84837975        4.42773330
 C            0.35832805        0.98200959        4.44950380
 C           -1.03106379        0.60528088        4.33545579
 C            0.95657327        1.67866576        3.40073954
 C            3.08509697        0.49724035        3.77980248
 C            2.34481640        1.62914382        3.25168833
 C            3.01459589       -1.51115121        2.58272529
 C            3.64116038       -0.20762469        2.63596643
 C            2.37722745       -1.89044576        1.40761355
 C            0.35639370       -2.42488981        2.57715380
 C            1.20758990       -2.64033322        1.49782826
 C           -1.70772378       -1.32277048        3.20123355
 C           -0.99591750       -2.13898344        2.32813216
 C           -1.75773862        0.99337974        3.14528569
 C           -2.41515958       -0.19772213        2.64240852
 C            0.17050417        2.23294609        2.37754588
 C           -1.17170064        1.85610132        2.21804385
 C            0.80080568        2.94604749        1.36221274
 C            2.92708324        1.91226686        1.95623616
 C            3.50753211        0.66619615        1.48364088
 C            2.19629677        2.66934464        1.06094416
 C            2.64646060       -1.19882167        0.22190170
 C            3.05421593        0.13720499        0.27607841
 C            2.12967572       -1.70028571       -0.97212695
 C            0.67544253       -3.16710380        0.33559931
 C            1.30918404       -2.82615039       -0.91997137
 C           -1.48503152       -2.27943583        1.02349827
 C           -0.75596701       -3.05358657        0.13113357
 C           -2.71984261       -0.21765247        1.29582159
 C           -2.40284646       -1.34224066        0.52789164
 C           -1.77938982        1.94233763        0.95571908
 C           -2.77234540        1.00586977        0.65250084
 C            0.12072949        3.14470397        0.09421248
 C           -1.16812384        2.66009502       -0.08229498
 C            2.25186096        2.31510222       -0.34329059
 C            2.61310765        1.01963215       -0.71036387
 C            1.08834712        2.91398453       -0.96130588
 C            2.06867053       -0.87245366       -2.09340535
 C            2.13333489        0.51285142       -1.91754434
 C            1.52641356       -1.38871018       -3.26938965
 C            0.31012810       -3.02905310       -1.95006276
 C           -0.98459577       -2.91968621       -1.29701773
 C            0.48974916       -2.40265289       -3.16830023
 C           -2.70998105       -1.29909379       -0.84108098
 C           -1.90367697       -1.98423059       -1.76272525
 C           -3.38385381        1.03003578       -0.58522062
 C           -3.50397936       -0.23817306       -1.27873650
 C           -1.64654861        2.51815867       -1.39069534
 C           -2.92124735        1.98716141       -1.55908535
 C            0.63339462        2.37615732       -2.15094662
 C            1.37231956        1.35238513       -2.73780754
 C           -0.72227060        2.47736802       -2.44735965
 C            1.13162447       -0.47744077       -4.32910355
 C            1.02455000        0.93143363       -4.01566290
 C           -0.67455174       -1.86884846       -3.84415755
 C           -1.81275899       -1.55570921       -3.09696257
 C           -0.16677824       -0.91613031       -4.81504351
 C           -3.60228327        0.05979002       -2.69180342
 C           -3.34482001        1.48604284       -2.85179359
 C           -2.73275623       -0.64115643       -3.60716544
 C           -1.12977105        2.17109732       -3.74561403
 C           -0.22051526        1.41537008       -4.59267409
 C           -0.94991860        0.26582738       -5.11004952
 C           -2.45958702        1.64729598       -3.98131640
 C           -2.30180021        0.33887219       -4.59210183
