   70
C70 / DATE: 7/ 1/2024 / Origin: Program Fullerene / C70 from database
 C            1.53419513       -0.09887240        5.04568215
 C            0.65521937       -1.24691606        5.17489658
 C            1.19559581       -2.31295558        4.35268446
 C            2.58566988       -0.44383983        4.10425602
 C            2.36766843       -1.80398814        3.65777804
 C            2.63862848        0.59935639        3.10103037
 C            0.76720691        0.98342795        4.45551108
 C            1.53232920        1.51035287        3.34383488
 C           -0.63462281       -0.88596880        4.61356766
 C           -0.56800679        0.49772922        4.17730175
 C            0.10612824       -2.84783320        3.55524453
 C           -0.99259606       -1.89570831        3.63091010
 C            0.42129185       -3.39006930        2.31911817
 C            2.50286730       -2.08741562        2.30148575
 C            1.74133445       -3.12882956        1.77036441
 C            2.90327583        0.24697668        1.78265797
 C            3.00920381       -1.10589939        1.43956159
 C            2.56877502        1.16552162        0.78935030
 C            0.84370165        1.98901038        2.23464133
 C            1.53617534        2.07666381        1.03765684
 C           -1.13130693        0.82255441        2.94937339
 C           -0.53887554        1.81798635        2.16864525
 C           -1.60742615       -1.47699201        2.45278946
 C           -1.92460828       -0.12478975        2.30784052
 C           -0.51890737       -3.23492293        1.22293294
 C           -1.51575888       -2.27056228        1.30672897
 C            1.64658162       -3.28848582        0.33085851
 C            0.23327053       -3.34924434       -0.01226880
 C            3.22454417       -1.43680811        0.10315752
 C            2.49773361       -2.55535997       -0.47733945
 C            2.98098990        0.92593516       -0.52157078
 C            3.27550884       -0.37945935       -0.89633468
 C            2.63204277        1.83588518       -1.51384225
 C            0.91933410        2.71146562       -0.03004052
 C            1.65733716        2.85870987       -1.19408802
 C           -1.20451846        2.19756209        1.00013622
 C           -0.48124879        2.74904360       -0.06684699
 C           -2.61037301        0.27641288        1.16890502
 C           -2.42566895        1.58739926        0.73410334
 C           -2.09389696       -1.79871035        0.13056821
 C           -2.93183644       -0.69699078        0.22745711
 C           -0.22417212       -2.67009438       -1.13742742
 C           -1.48981278       -2.07563896       -1.10218950
 C            2.03218124       -2.14517633       -1.78880048
 C            2.70673701       -0.90518859       -2.12813158
 C            0.69017100       -2.29130989       -2.12297929
 C            2.30531840        1.33875943       -2.84136664
 C            2.09464579       -0.02701235       -3.01839991
 C            0.99446737        3.23827406       -2.41949509
 C            1.40848540        2.30241629       -3.45521989
 C           -1.15908397        3.09572449       -1.24790899
 C           -0.44886584        3.29925027       -2.43158839
 C           -3.18118503        2.04225195       -0.33500763
 C           -2.53148687        2.86483965       -1.33972225
 C           -3.66490063       -0.32385869       -0.88884627
 C           -4.01229310        1.07642911       -1.02677818
 C           -2.01471419       -1.50037150       -2.26348594
 C           -3.21358421       -0.79219473       -2.18735829
 C            0.23130420       -1.62182359       -3.24808412
 C            0.98355478       -0.47487542       -3.73830447
 C           -1.18066692       -1.31095817       -3.36442568
 C            0.21319652        1.83314782       -4.12855232
 C           -0.89421670        2.64592267       -3.65350443
 C            0.03169467        0.46904317       -4.31045722
 C           -1.29847557       -0.10432365       -4.17333912
 C           -3.09517310        2.50886681       -2.63360990
 C           -4.01516554        1.40429069       -2.43896245
 C           -3.48225168        0.25976603       -3.15568968
 C           -2.18716385        2.14360788       -3.70467346
 C           -2.39550225        0.72886444       -3.99439036
