   70
C70 / DATE: 7/ 1/2024 / Origin: Program Fullerene / C70 from database
 C            1.58828498       -0.06988279        4.45299175
 C            0.77081427       -1.25555295        4.27938413
 C            1.50781967       -2.17569240        3.43813956
 C            2.65843837       -0.13091144        3.47324845
 C            2.59574148       -1.42759780        2.82481212
 C            2.57260037        1.05615011        2.64251941
 C            0.76628585        1.08113692        4.13254904
 C            1.44532526        1.84577195        3.10864248
 C           -0.55115571       -0.83741175        3.84342228
 C           -0.57371712        0.61609609        3.84299587
 C           -1.16143816       -1.52837212        2.79356333
 C            0.77938645       -3.03841029        2.63900981
 C           -0.63553499       -2.76195833        2.41660350
 C            1.32942386       -3.41706614        1.35396826
 C            2.76510002       -1.48587625        1.44239716
 C            2.24626434       -2.57359699        0.73105353
 C            2.76338890        0.92316043        1.26993771
 C            3.12541061       -0.32380089        0.75597410
 C            2.20356956        1.87939589        0.41573252
 C            0.67249277        2.49075647        2.15421273
 C            1.26186296        2.77667744        0.93023024
 C           -1.28187993        1.25581249        2.83899236
 C           -0.72028570        2.37016245        2.20846646
 C           -1.99826931       -0.83148927        1.91290822
 C           -2.23953294        0.52371970        2.15420290
 C           -2.34519215       -1.38651271        0.67032552
 C           -0.98372422       -3.32681823        1.12702346
 C            0.22247886       -3.94149355        0.58518227
 C           -1.83690838       -2.62880419        0.27870302
 C            0.36511177       -4.04473721       -0.78768630
 C            2.37999182       -2.61719264       -0.66009459
 C            1.51267634       -3.41089503       -1.42029379
 C            3.45581269       -0.41736762       -0.58653575
 C            3.15193025       -1.64757539       -1.29461426
 C            2.33640017        1.72643414       -0.96789249
 C            3.12534964        0.69321283       -1.46173290
 C            1.41315902        2.33614285       -1.81840452
 C            0.58000489        3.62770148        0.07278055
 C            0.73689434        3.45852167       -1.35933499
 C           -1.48757448        3.05244064        1.25936279
 C           -0.82831968        3.86806327        0.33417115
 C           -3.11798304        1.22117321        1.34159230
 C           -2.78378587        2.59379617        1.00228369
 C           -3.01657091       -0.60324438       -0.27241066
 C           -3.61107932        0.58372482        0.13780435
 C           -2.71937967       -0.76541327       -1.62466708
 C           -1.87490324       -2.98367657       -1.06824799
 C           -0.79387812       -3.78267036       -1.61827043
 C           -2.21531071       -1.97812562       -2.05649316
 C            1.09847474       -2.97388191       -2.74859875
 C           -0.33757779       -3.13814902       -2.83838507
 C           -1.16257138       -1.96394412       -3.05690473
 C            2.86534550       -1.30019874       -2.67470254
 C            2.81260208        0.14787112       -2.76794265
 C            1.66793945       -1.83367328       -3.29280039
 C            0.85518878        1.59883909       -2.86746056
 C           -0.56093403       -0.74791108       -3.38240054
 C            1.54983587        0.51370527       -3.37814326
 C            0.81154700       -0.70756871       -3.65186784
 C           -2.45538372        0.36113739       -2.39501189
 C           -0.52020409        1.64164886       -3.06403341
 C           -1.23506791        0.44027919       -3.07374674
 C           -0.52212323        3.82433245       -1.98727011
 C           -1.44809059        4.20991038       -0.93534135
 C           -1.18331781        2.83821839       -2.81983433
 C           -3.44743063        2.89544705       -0.25472176
 C           -3.84192627        1.62870148       -0.84842068
 C           -3.17839156        1.51774495       -2.13384826
 C           -2.74412329        3.65683436       -1.26491115
 C           -2.57938695        2.80275205       -2.43216211
