   70
C70 / DATE: 7/ 1/2024 / Origin: Program Fullerene / C70 from database
 C            1.68225744        0.02106706        5.29654666
 C            0.80097215       -1.12715788        5.39568181
 C            1.30632752       -2.13770850        4.49110278
 C            2.62899280       -0.22492555        4.21821429
 C            2.38509938       -1.55328862        3.70732540
 C            2.54632667        0.88717571        3.29594717
 C            0.87313055        1.15284721        4.89692070
 C            1.60114386        1.84594124        3.85351773
 C           -0.51114614       -0.73591270        4.90189031
 C           -0.46335174        0.67293703        4.57874730
 C            0.16632657       -2.67028232        3.77023034
 C           -0.88473667       -1.66693734        3.85650531
 C            0.41754055       -3.22268784        2.52814411
 C            2.36730001       -1.76321388        2.33114325
 C            1.67725383       -2.88234407        1.88671522
 C            2.51654221        0.63557627        1.92236441
 C            2.54100986       -0.68431653        1.44393060
 C            2.09738833        1.66144469        1.07526434
 C            0.85460385        2.59645039        2.96442082
 C            1.31528509        2.68927034        1.59701405
 C           -1.04536627        1.12005326        3.39485965
 C           -0.57008969        2.31698364        2.87398347
 C           -1.43727401       -1.17322509        2.67396528
 C           -1.65149078        0.20504845        2.52046643
 C           -0.59200898       -3.08426926        1.49701173
 C           -1.45578219       -2.00027910        1.54513134
 C            1.48827165       -3.06444944        0.47149050
 C            0.08201732       -3.36464183        0.25251443
 C            2.44291093       -0.90979743        0.05828352
 C            2.10080343       -2.18755765       -0.40786528
 C            2.06264923        1.45197991       -0.29905987
 C            2.35808888        0.18832143       -0.81309100
 C            1.33925938        2.35210887       -1.08102205
 C            0.17761955        3.14816235        0.82470300
 C           -0.99961333        2.73022102        1.55558217
 C            0.19529390        2.92671000       -0.54250532
 C           -2.20020551        0.66447652        1.31723452
 C           -1.92931284        1.96633423        0.87490216
 C           -1.98647367       -1.51229397        0.35188864
 C           -2.63060276       -0.28007587        0.38384319
 C           -0.48085085       -2.92256849       -0.93503503
 C           -1.57395524       -2.05052698       -0.88220469
 C            1.73982832       -2.34245102       -1.73682597
 C            0.38988278       -2.81396405       -2.00723200
 C            2.28553360       -0.01236080       -2.19844838
 C            2.02146054       -1.28781043       -2.68141802
 C            1.43419659        2.26668644       -2.45674153
 C            2.04152292        1.08192481       -3.02903409
 C            0.25177396        2.57174984       -3.24276395
 C           -1.01836011        2.73021130       -1.20716942
 C           -2.11706678        2.25441104       -0.47285982
 C           -0.99033772        2.60790248       -2.60253348
 C           -3.28669289        0.16252221       -0.75694107
 C           -3.11932909        1.55338673       -1.12081062
 C           -2.07043267       -1.49571411       -2.07141628
 C           -3.13615980       -0.60164699       -1.97838560
 C           -0.06155862       -2.18024940       -3.22200707
 C            1.07758116       -1.46555755       -3.77463466
 C           -1.31732018       -1.58680855       -3.25733622
 C            1.43476356        0.87597190       -4.33865720
 C            0.40577437        1.88934362       -4.51520035
 C            0.84454450       -0.41339805       -4.64574098
 C           -1.61534524       -0.78911186       -4.36324158
 C           -0.74706302        1.25498426       -5.11900010
 C           -0.51787926       -0.18119091       -5.10045529
 C           -2.14808445        2.24692896       -3.29521787
 C           -3.24232623        1.65645416       -2.55724983
 C           -3.43050453        0.30784505       -3.06908177
 C           -2.05238765        1.49526673       -4.53564529
 C           -2.66816832        0.20002493       -4.29065494
