   70
C70 / DATE: 7/ 1/2024 / Origin: Program Fullerene / C70 from database
 C            1.48529041        0.02697554        4.54194045
 C            0.68197193       -1.15142495        4.26476730
 C            1.40653337       -1.97339172        3.32644102
 C            2.64054897       -0.00896633        3.66229754
 C            2.63633392       -1.27527712        2.97777995
 C            2.62623284        1.18497767        2.85683336
 C            0.69429919        1.19139441        4.18502110
 C            1.41924309        1.93313656        3.18281579
 C           -0.63950939       -0.70918183        3.89354466
 C           -0.63456053        0.73981157        3.85571445
 C           -1.31247065       -1.36403240        2.87058362
 C            0.71154660       -2.62275420        2.30783393
 C           -0.63269296       -2.28769715        2.05493439
 C            1.48437283       -3.15091558        1.27368374
 C            3.05452270       -1.33431694        1.65498722
 C            2.77031475       -2.52752816        1.00764708
 C            3.00592860        1.10987030        1.52035686
 C            3.14855314       -0.14603059        0.89673070
 C            2.69545155        2.21780057        0.74480212
 C            0.71856398        2.53016687        2.13870972
 C            1.47920151        2.95475322        1.05601462
 C           -1.31299043        1.34269030        2.80601214
 C           -0.63981282        2.22257334        1.93915835
 C           -2.43381302       -0.72355218        2.34989443
 C           -2.43788042        0.67991468        2.32843278
 C           -3.22120221       -1.44411655        1.46289691
 C           -1.21415261       -2.66851135        0.83635608
 C           -2.55729041       -2.40219402        0.60558649
 C            0.87196937       -3.42785816       -0.01065271
 C           -0.39521915       -2.92878320       -0.25523167
 C            3.05012224       -2.65581231       -0.39844175
 C            1.89751796       -3.29053020       -1.02164224
 C            3.26669900       -0.21588420       -0.50807078
 C            3.33954267       -1.45583241       -1.14562935
 C            2.81497068        2.14882796       -0.69185157
 C            3.07950295        0.92699515       -1.29614104
 C            0.83029921        3.27966012       -0.19666767
 C            1.79370352        3.02408619       -1.24996291
 C           -1.26954354        2.60765661        0.74329037
 C           -0.49854623        2.92179502       -0.37756607
 C           -3.25406646        1.37253790        1.44613882
 C           -2.62725992        2.34655531        0.57564737
 C           -4.24459700       -0.77455009        0.68644166
 C           -4.27087600        0.66980798        0.69065269
 C           -2.99090868       -2.14319339       -0.75628624
 C           -4.11324683       -1.21960009       -0.69107604
 C           -0.71692242       -2.38868570       -1.50791860
 C           -2.03211684       -1.98396147       -1.75519582
 C            1.59199404       -2.54323219       -2.22229635
 C            2.69643517       -1.62542436       -2.43417390
 C            0.29296590       -2.08864942       -2.43574320
 C            2.83701786        0.79392640       -2.66428753
 C            2.47308090       -0.50288178       -3.20673643
 C            1.33378045        2.78792902       -2.53347865
 C            2.00946649        1.78446465       -3.33467227
 C           -0.97490548        2.63934919       -1.66476344
 C           -0.09674977        2.64189858       -2.75148008
 C           -3.14398547        2.13388450       -0.76432537
 C           -4.19136367        1.12549631       -0.68588206
 C           -4.10664312       -0.04480282       -1.54339515
 C           -2.25285422        2.10157383       -1.83008940
 C           -2.29554378       -1.11102508       -2.80821543
 C           -3.23095652       -0.01147279       -2.61726503
 C           -2.48709068        1.20802548       -2.87514157
 C            0.08893592       -1.08822395       -3.38837049
 C            1.17789320       -0.34553694       -3.84571308
 C            1.00186483        1.07209827       -4.10219793
 C           -0.28754302        1.67063526       -3.81634125
 C           -1.19409357       -0.59627676       -3.60190357
 C           -1.39526391        0.84083962       -3.75514103
