   70
C70 / DATE: 7/ 1/2024 / Origin: Program Fullerene / C70 from database
 C            1.59479518        0.08640088        4.56819515
 C            0.79477350       -1.11527004        4.46327806
 C            1.32117908       -1.92690250        3.37526259
 C            2.64733712       -0.00347568        3.57581164
 C            2.45759948       -1.22490206        2.81564676
 C            2.65860683        1.24616107        2.84170178
 C            0.74202299        1.20332539        4.19710744
 C            1.41991328        1.93580831        3.15268653
 C           -0.59152691       -0.69934242        4.38144647
 C           -0.57850724        0.67865356        3.91613715
 C           -1.46536820       -1.57250657        3.76753745
 C            0.40348780       -2.54133183        2.52877851
 C           -0.88974567       -2.68071951        3.02477004
 C            0.60618265       -2.50302596        1.13693837
 C            2.59635797       -1.14550782        1.43988519
 C            1.74619088       -1.88037680        0.60855854
 C            3.03957082        1.21234960        1.50565621
 C            3.25589295       -0.03692035        0.91649272
 C            2.62096176        2.26342431        0.68879097
 C            0.68463946        2.42317833        2.08317393
 C            1.40456432        2.88750690        0.98821300
 C           -1.18760801        0.99488730        2.69761547
 C           -0.63161613        1.97919367        1.87735827
 C           -2.47173557       -1.02133882        2.88660814
 C           -2.17866727        0.15069179        2.18749920
 C           -1.93118107       -3.16577424        2.15614699
 C           -2.98959772       -2.16169839        2.16935210
 C           -0.37874262       -2.99671784        0.26564376
 C           -1.61027363       -3.41520758        0.77061508
 C           -0.27145344       -2.76649088       -1.10935196
 C            1.91095206       -1.78091880       -0.77762670
 C            0.88033835       -2.17815862       -1.63251683
 C            3.65232022       -0.08752674       -0.40975033
 C            2.97972105       -1.03231738       -1.28298889
 C            3.15203301        2.34239511       -0.59470678
 C            3.79987605        1.16199605       -1.13381449
 C            2.37842591        2.94751992       -1.66371674
 C            0.70462137        3.57413159        0.00702066
 C            1.22846466        3.65121405       -1.34605644
 C           -1.27884928        2.32281096        0.69031416
 C           -0.72567815        3.34925978       -0.07484466
 C           -2.61593371        0.30579617        0.85996715
 C           -2.19016477        1.42056440        0.11608327
 C           -3.40474575       -1.97795711        0.80344996
 C           -2.81180606       -3.06562235        0.04470267
 C           -3.38623893       -0.70203310        0.25049458
 C           -1.40031424       -2.91751447       -1.92504601
 C           -2.72391168       -2.91640367       -1.32533658
 C           -1.49870459       -2.16700519       -3.16676841
 C            0.89116233       -1.76842960       -2.96660536
 C           -0.36466198       -1.54363543       -3.65238893
 C            2.88327969       -0.42190103       -2.60022580
 C            3.31226089        0.95780224       -2.48547999
 C            2.35919888        2.01268197       -2.78152437
 C            1.77972655       -0.70445049       -3.38277188
 C           -0.41370011       -0.12542399       -3.99703985
 C            1.14931821        1.68622425       -3.39507119
 C            0.94310533        0.38983734       -3.86468999
 C            0.10114670        3.59268714       -2.25547486
 C           -1.11127696        3.50105372       -1.45656661
 C            0.05793155        2.53752802       -3.25324605
 C           -2.59972941        1.57574589       -1.22052455
 C           -1.50112375        0.66019236       -3.60204324
 C           -1.94915269        2.48672330       -2.04223684
 C           -1.28623420        1.98594184       -3.23653003
 C           -3.66960361       -0.62263889       -1.10576362
 C           -3.44725015       -1.80759801       -1.91993295
 C           -2.73015732       -1.40659840       -3.11523488
 C           -3.22216511        0.51970504       -1.86567296
 C           -2.65053295        0.04025032       -3.11739122
