   70
C70 / DATE: 7/ 1/2024 / Origin: Program Fullerene / C70 from database
 C            1.00551448       -0.03565613        4.76413577
 C            2.31281105       -0.39301944        4.26245677
 C            2.25785783       -1.78803795        3.85393913
 C            0.16429495       -1.21973983        4.67454205
 C            0.85630084       -2.16824716        3.82756130
 C           -1.15574690       -0.78345981        4.28794862
 C            0.28622589        1.04363993        4.11936748
 C           -1.10914699        0.66145354        4.11747343
 C            0.80118403        1.63890868        2.97047091
 C            2.85713023        0.35279217        3.14670007
 C            2.10520296        1.35521499        2.53235425
 C            3.03749414       -1.91956017        2.63495816
 C            3.56246485       -0.60009249        2.31187936
 C            2.53702982       -2.71925182        1.61601420
 C            0.29298886       -2.57614489        2.61545406
 C            1.13852871       -3.12507430        1.65745299
 C           -1.74183032       -1.32888923        3.08200088
 C           -0.99968617       -2.16808728        2.24625273
 C           -1.90741670        0.98433169        2.94769124
 C           -2.49875056       -0.25153223        2.47659047
 C           -0.07852583        2.30667691        2.11754800
 C           -1.39860604        1.86094362        1.99619709
 C            0.45375275        3.11236601        1.12351695
 C            2.52746982        1.82907275        1.28644370
 C            1.80014497        2.83467764        0.66028956
 C            3.80090736       -0.26177911        0.98676111
 C            3.38431826        1.04775780        0.51105804
 C            2.86338472       -2.40803056        0.23445331
 C            3.50947152       -1.21969075       -0.06980912
 C            0.68111103       -3.27035338        0.29232100
 C            1.74773831       -2.83806907       -0.58750475
 C           -1.44072613       -2.31975221        0.92281945
 C           -0.61542708       -2.91358232       -0.04156329
 C           -2.79568687       -0.35643933        1.12915096
 C           -2.54792835       -1.57102389        0.50540357
 C           -2.01162750        1.88818741        0.74224120
 C           -2.79593781        0.79696930        0.34522958
 C           -0.35605669        3.44184483       -0.03661521
 C           -1.59929081        2.83375609       -0.19560578
 C            1.77975885        2.89212103       -0.79309872
 C            0.54208108        3.54441774       -1.17739293
 C            3.15041829        0.93955044       -0.92102444
 C            3.10054072       -0.47158386       -1.24669739
 C            2.23637590        1.79718356       -1.52301040
 C            1.39422708       -2.12098894       -1.72417984
 C            2.05544349       -0.92699395       -2.04041519
 C           -0.90992035       -2.72523338       -1.39300931
 C            0.12785649       -2.34353443       -2.26033794
 C           -3.04120705       -1.74147066       -0.77995675
 C           -2.23582289       -2.47792999       -1.72807339
 C           -3.24150422        0.69390712       -0.97423425
 C           -3.54691812       -0.57065497       -1.47737075
 C           -2.20550943        2.86678641       -1.44665927
 C           -3.05226802        1.75934392       -1.85171870
 C            0.03357177        3.31658696       -2.44541504
 C           -1.40749131        3.25904387       -2.59594396
 C            1.49414686        1.34823739       -2.62120795
 C            1.44474524       -0.02271114       -2.91091286
 C            0.59393856        2.22597214       -3.22749460
 C           -0.15316191       -1.76347622       -3.49359260
 C            0.51115780       -0.51682050       -3.81869013
 C           -2.58471859       -2.01214364       -3.05633323
 C           -3.41845164       -0.82964769       -2.90026714
 C           -1.51769605       -1.68809350       -3.97292468
 C           -2.81657771        1.50992003       -3.27045047
 C           -1.70443373        2.34705871       -3.68392060
 C           -0.45929821        1.71535256       -4.08907375
 C           -0.46983363        0.36962519       -4.42121897
 C           -2.88892268        0.21199720       -3.75849559
 C           -1.74146319       -0.33890137       -4.46445841
