   70
C70 / DATE: 7/ 1/2024 / Origin: Program Fullerene / C70 from database
 C            1.20113459        0.12170594        4.85047293
 C            2.42157393       -0.09623512        4.10551786
 C            2.47557929       -1.50726294        3.76447318
 C            0.38403970       -1.07839525        4.72122235
 C            1.16342450       -2.07391191        4.00753703
 C           -0.90720127       -0.67620057        4.18662332
 C            0.37441916        1.25099021        4.48602890
 C           -0.98337315        0.75895073        4.32949453
 C            0.69054486        1.99721030        3.27820677
 C            2.64774422        0.65700099        2.87924188
 C            1.67495034        1.53268658        2.40792305
 C            3.03972184       -1.60350839        2.43319735
 C            3.27658561       -0.24986244        1.94929593
 C            2.54042001       -2.54363886        1.53577804
 C            0.55412154       -2.80338083        2.99537106
 C            1.31125770       -3.15543957        1.80076249
 C           -1.37350155       -1.26043023        3.00922636
 C           -0.79376993       -2.45080994        2.56999810
 C           -2.18618504       -0.52617362        2.13085268
 C           -1.58287465        1.51249906        3.25482256
 C           -0.57914495        2.41456804        2.73030623
 C           -2.36964595        0.85395041        2.32235371
 C           -0.66591259        2.70707214        1.38129241
 C            1.50369614        1.69941646        1.02727065
 C            0.43846705        2.47504191        0.55595350
 C            3.16184403       -0.02176731        0.58580411
 C            2.30372179        0.98604547        0.12096366
 C            2.94580905       -2.41782199        0.21267733
 C            3.40694742       -1.11285758       -0.23104883
 C            2.09499619       -2.93093987       -0.84372601
 C            0.34913124       -3.34257859        0.72066403
 C           -0.93344196       -2.84290014        1.17781582
 C            0.73976868       -3.09883912       -0.58889226
 C           -2.53010966       -1.09118403        0.89498794
 C           -1.69020572       -2.04797316        0.33157357
 C           -3.41107763       -0.41078669        0.06337319
 C           -2.78525494        1.61311890        1.23267137
 C           -1.92895903        2.64062596        0.80815420
 C           -3.63120591        0.99459395        0.32289201
 C           -2.07272329        3.20831271       -0.44773258
 C            0.30124042        2.71013452       -0.81501796
 C           -0.88478978        3.29684802       -1.27753058
 C            2.07461080        1.11698640       -1.25912730
 C            1.15840059        2.07621878       -1.71896398
 C            3.13160413       -1.01018520       -1.64148366
 C            2.50540216       -2.25693244       -2.05833840
 C            2.63786417        0.18292308       -2.14902100
 C            1.61532987       -2.20869023       -3.11748465
 C           -0.19131623       -2.58637471       -1.49756622
 C           -1.34862228       -1.95876151       -1.02194697
 C            0.20020581       -2.38930769       -2.82240816
 C           -3.26760759       -0.56207641       -1.37408166
 C           -2.11651870       -1.15887177       -1.87282337
 C           -3.93627016        1.64136799       -0.93630665
 C           -3.18834909        2.82568709       -1.28954640
 C           -3.74463865        0.65776866       -1.99112817
 C           -1.30349137        3.11808588       -2.65876789
 C           -2.67879001        2.64323015       -2.63451139
 C           -2.93758814        1.26731976       -3.02874358
 C            0.91855467        2.22080829       -3.08564509
 C           -0.42940143        2.50398029       -3.53634747
 C            2.24969174        0.16478990       -3.48365387
 C            1.72435943       -1.07918032       -4.02004674
 C            1.44109448        1.23621416       -4.00799284
 C           -0.55045924       -1.46768825       -3.66166022
 C           -1.59179787       -0.73557481       -3.09767405
 C           -1.88803934        0.54725288       -3.58971329
 C           -0.88005795        1.29380124       -4.19740319
 C            0.40003876       -0.80215890       -4.53464861
 C            0.30402913        0.63149354       -4.69381710
