   70
C70 / DATE: 7/ 1/2024 / Origin: Program Fullerene / C70 from database
 C            1.29377460       -0.07246311        4.34374795
 C            2.51470331       -0.33363839        3.61623094
 C            2.51086689       -1.73692630        3.23980823
 C            0.45345382       -1.25655063        4.25786260
 C            1.21240693       -2.29131736        3.58110686
 C           -0.83200489       -0.84950206        3.70684113
 C            0.48828954        1.05365207        3.93132860
 C           -0.87979467        0.59324547        3.76868626
 C            0.98139643        1.94656600        2.98536047
 C            2.79018288        0.44779672        2.42131549
 C            1.94027786        1.49521107        2.06666647
 C            2.97275769       -1.82517120        1.86505420
 C            3.23171262       -0.47625002        1.39599723
 C            2.36026490       -2.71883500        0.99111404
 C            0.56524248       -3.08143823        2.64446938
 C            1.27681196       -3.47865902        1.44189131
 C           -1.31962079       -1.49188079        2.57749771
 C           -0.79060604       -2.73683644        2.23592358
 C           -2.04473582       -0.76290124        1.62758303
 C           -1.67828124        1.29612948        2.87656689
 C           -2.30162378        0.60711380        1.82342129
 C            0.09432624        2.93518673        2.58692933
 C           -1.32228886        2.62530197        2.68304506
 C            0.29138266        3.59789714        1.31672004
 C            1.83958650        1.86136528        0.71655382
 C            1.10905763        3.00043681        0.36622363
 C            2.96142298       -0.18928270        0.06828272
 C            2.40891637        1.04724476       -0.27843100
 C            2.51347705       -2.51656811       -0.38204837
 C            2.89271541       -1.24412437       -0.83586860
 C            1.87486797       -3.40674383       -1.24522060
 C            0.26070231       -3.90244742        0.49378483
 C           -0.97718484       -3.24964625        0.88997216
 C            0.59007051       -3.94423295       -0.84916172
 C           -2.40258041       -1.38157507        0.42551143
 C           -1.66726535       -2.47307752       -0.03105896
 C           -3.23068911       -0.72414879       -0.47120150
 C           -3.02052380        1.32746749        0.85386075
 C           -3.59302103        0.65494400       -0.22068431
 C           -2.01351556        3.40485066        1.68681936
 C           -1.00655555        4.11294568        0.91169844
 C           -2.87313589        2.71243662        0.75670962
 C           -1.38895293        4.02994162       -0.48604302
 C           -2.65775519        3.31932461       -0.54732170
 C            0.90707066        3.30920293       -0.97393617
 C           -0.40600941        3.75372944       -1.42576129
 C            2.25603810        1.36885126       -1.63498138
 C            1.45634809        2.44645492       -1.99585859
 C            2.89598645       -0.94023027       -2.19075322
 C            2.46360657        0.38200454       -2.60037345
 C            1.78848395       -3.11693178       -2.66254454
 C            2.36971886       -1.88914524       -3.15200950
 C           -0.37106602       -3.44820402       -1.81666134
 C           -1.37732622       -2.58521310       -1.39385024
 C            0.37518280       -3.11230549       -3.01537038
 C           -2.95729531       -0.86915085       -1.89084083
 C           -1.84096703       -1.60386288       -2.26861781
 C           -3.67842322        1.32750326       -1.50832426
 C           -2.98749643        2.59178330       -1.68296870
 C           -3.19740031        0.41060675       -2.52605121
 C           -0.74555153        2.99845502       -2.62042960
 C            0.42960673        2.23907339       -3.00506832
 C           -1.99927670        2.41377557       -2.73911390
 C           -2.09741154        1.04658981       -3.22434190
 C            1.45734708        0.21089690       -3.63990473
 C            1.35498852       -1.20322093       -3.93353337
 C            0.08830205       -1.85503063       -3.68259015
 C           -0.97033456       -1.07561566       -3.22826037
 C            0.29481574        0.96755216       -3.54976715
 C           -0.93746912        0.30759039       -3.44563265
