   70
C70 / DATE: 7/ 1/2024 / Origin: Program Fullerene / C70 from database
 C            1.26843572        0.16688653        4.74215425
 C            2.50929324        0.03140252        4.01215922
 C            2.51836858       -1.29921643        3.42936513
 C            0.44400141       -0.98877276        4.41180728
 C            1.15945433       -1.78291273        3.43012693
 C           -0.87517553       -0.50308021        4.07324650
 C            0.47138524        1.35628698        4.52123183
 C           -0.89954098        0.92926419        4.30777150
 C            0.81386399        2.23939591        3.41963065
 C            2.80194602        0.96647462        2.93638034
 C            1.84180770        1.88907337        2.53928606
 C            3.18341744       -1.19636372        2.15859460
 C            3.49172254        0.20572875        1.92301082
 C            2.69244087       -1.91947883        1.08190113
 C            0.54457309       -2.06679557        2.20849247
 C            1.31816391       -2.22209680        1.04724303
 C           -1.48971981       -0.97066443        2.92356215
 C           -0.83184656       -1.88546076        2.09177169
 C           -2.48452887       -0.18064782        2.36866339
 C           -1.47225163        1.78370328        3.27391420
 C           -0.44229375        2.73422691        2.88758204
 C           -2.25752197        1.19244985        2.28285945
 C           -0.45783532        3.23934735        1.60178697
 C            1.75802163        2.26116922        1.19271704
 C            0.75058786        3.13784606        0.80197110
 C            3.47083750        0.63514787        0.60284265
 C            2.51910289        1.59664959        0.21510905
 C            3.35105058       -1.67761692       -0.11113406
 C            3.85204557       -0.32873444       -0.32003645
 C            2.76295817       -2.11583817       -1.34924320
 C            0.67049236       -2.41476544       -0.18834446
 C            1.42471968       -2.48153141       -1.36981694
 C           -1.48270623       -2.29771885        0.93084758
 C           -0.73562857       -2.47656022       -0.24396088
 C           -3.31279539       -0.77735538        1.44099912
 C           -2.84420138       -2.01294099        0.84770106
 C           -3.79839177        0.03102201        0.34789714
 C           -2.38902681        1.82491463        1.03911553
 C           -1.57327475        2.90742983        0.73239858
 C           -3.07212591        1.17139430        0.00873084
 C            0.34322404        3.18355485       -0.58457769
 C           -1.10893226        3.06818060       -0.62716317
 C            2.21838763        1.78029231       -1.15223928
 C            1.09303973        2.51632058       -1.54106481
 C            3.76109915       -0.03225044       -1.72526879
 C            3.26362914       -1.22730263       -2.38479594
 C            2.92007911        1.06804404       -2.12684812
 C            2.35202647       -0.80307913       -3.42802978
 C            2.23455425        0.64686504       -3.33664943
 C            0.78321307       -2.49287655       -2.60170278
 C            1.21103464       -1.56347888       -3.64037721
 C           -1.38799185       -2.65051343       -1.48006153
 C           -0.65534846       -2.58478319       -2.65804942
 C           -3.53765009       -2.16019506       -0.40888556
 C           -4.22615491       -0.90194803       -0.67244054
 C           -2.76809252       -2.48643460       -1.58205500
 C           -4.00664510       -0.56097549       -2.05609735
 C           -3.29524894       -1.67200805       -2.66380084
 C           -2.71798215        1.41508237       -1.33224237
 C           -1.68879479        2.31346008       -1.63881552
 C           -3.26011493        0.64113565       -2.36245787
 C            0.48381511        2.25747450       -2.76836384
 C            1.03481715        1.25832558       -3.66717797
 C           -0.96580614        2.15690521       -2.82001909
 C            0.02050719       -0.92769094       -4.17311740
 C           -1.11507735       -1.71926421       -3.73721856
 C           -2.36088529       -1.11848461       -3.62528961
 C           -2.44214400        0.33341270       -3.52201867
 C           -0.07194499        0.45977889       -4.17558409
 C           -1.31043805        1.10119097       -3.75792307
