   70
C70 / DATE: 7/ 1/2024 / Origin: Program Fullerene / C70 from database
 C            1.37770091        0.03430090        5.04325784
 C            0.58898214       -1.15490197        4.78000161
 C            1.47092909       -2.12435085        4.17383969
 C            2.61498020       -0.08481197        4.28743453
 C            2.69573702       -1.43559494        3.78676484
 C            2.65165214        1.00246227        3.33308176
 C            0.64792224        1.17146002        4.51365819
 C            1.53121431        1.88573456        3.61777006
 C           -0.60138563       -0.75482669        4.04738511
 C           -0.60612369        0.69620627        3.97085278
 C           -1.00084790       -1.48250535        2.92452403
 C            0.99653498       -2.83062674        3.00538087
 C           -0.31516244       -2.65534097        2.57211968
 C            2.87568808       -1.64015914        2.35909150
 C            2.04890453       -2.77563681        2.00757163
 C            2.97490534        0.75878661        1.99687591
 C            2.91143663       -0.54970047        1.48824260
 C            2.80724563        1.82818209        1.12620250
 C            0.96825992        2.56612774        2.54498537
 C            1.80808071        2.82600623        1.46709596
 C           -1.06828043        1.29068485        2.80536062
 C           -0.40187483        2.41074919        2.30020132
 C           -1.81337743       -0.84966961        1.97679892
 C           -1.88181300        0.54953568        1.95136018
 C           -2.35751048       -1.59683978        0.93160329
 C           -0.63886565       -3.28087548        1.37452284
 C           -1.76604805       -2.80661670        0.59710561
 C            1.67736866       -2.94225927        0.68201900
 C            0.44427251       -3.54342522        0.44231969
 C            2.58467536       -0.77004998        0.14172996
 C            2.17287667       -2.04786800       -0.26620202
 C            2.71575513        1.59164103       -0.29887192
 C            2.57340871        0.29574048       -0.76728567
 C            1.25136324        3.34395903        0.23259849
 C            1.88016499        2.63348926       -0.86952099
 C           -0.97037704        3.07633191        1.21878210
 C           -0.10676782        3.60451600        0.17399882
 C           -2.52825940        1.20532780        0.90398910
 C           -2.13710634        2.49672773        0.57128194
 C           -3.15332775       -0.97125202       -0.02046192
 C           -3.27335754        0.47371958       -0.00909454
 C           -3.05269787       -1.39478809       -1.40848240
 C           -1.49144909       -3.09689261       -0.80380433
 C           -0.10747716       -3.53072136       -0.89983262
 C           -2.02585756       -2.25944913       -1.78113549
 C            1.86823181       -2.27761662       -1.60451925
 C            0.67551575       -3.04697376       -1.93231790
 C            2.07603377        0.11006912       -2.05703982
 C            1.94880873       -1.18133786       -2.54808589
 C            1.13459059        2.33791105       -2.00654306
 C            1.43242177        1.16701656       -2.71137621
 C           -0.79363711        3.44430982       -1.09290069
 C           -2.11266412        2.89941349       -0.82541499
 C           -0.09989145        2.97211682       -2.20052201
 C           -3.37253953        0.92925644       -1.39066674
 C           -3.38259598       -0.25517215       -2.24272650
 C           -2.69967267        2.08712545       -1.79292787
 C           -2.85675792       -0.18422407       -3.52170771
 C           -1.31636317       -2.02683781       -2.96633808
 C            0.02854238       -2.39418688       -3.05339073
 C            0.99143205       -1.45510806       -3.60433560
 C           -1.81753702       -1.12688522       -3.90735182
 C            0.84194455        0.95376982       -3.95522553
 C            0.52320471       -0.40283087       -4.37219630
 C           -0.87523117       -0.41964717       -4.75956059
 C           -0.85906223        2.64202992       -3.31674124
 C           -2.22799337        2.19006688       -3.10257163
 C           -2.49281023        1.11734504       -4.04293887
 C           -0.26846934        1.80148594       -4.33726845
 C           -1.31759289        0.95637802       -4.88044896
