   70
C70 / DATE: 7/ 1/2024 / Origin: Program Fullerene / C70 from database
 C            1.45251571       -0.08878394        4.14535787
 C            2.66461017       -0.22853004        3.35274648
 C            2.54173772       -1.44973323        2.57606634
 C            0.62145724       -1.25684745        3.90821656
 C            1.32939252       -2.13431631        3.00152892
 C           -0.69812569       -0.80402788        3.52253645
 C            0.62341767        1.09207660        3.97113851
 C           -0.69097317        0.64671883        3.54091833
 C            1.17983521        2.22223209        3.39121619
 C            3.21164610        0.89840866        2.75799979
 C            2.57420452        2.18582832        2.98247701
 C            3.59679377        0.83903378        1.35756386
 C            2.87707272       -1.46042553        1.22183117
 C            3.22443131       -0.26392494        0.58541292
 C            2.44103512       -2.53982825        0.46230384
 C            0.60371650       -2.83458201        2.04592513
 C            1.30456331       -3.30777720        0.94212560
 C           -1.33983608       -1.44910754        2.46995792
 C           -0.77381731       -2.60821397        1.93017479
 C           -2.30993453       -0.75332899        1.74095099
 C           -1.35696846        1.31466198        2.52202719
 C           -2.37917386        0.64387922        1.85734190
 C            0.43617394        2.93225869        2.36381685
 C           -0.78241769        2.43788830        1.91608825
 C            2.70374163        2.96546548        1.76533975
 C            3.46676434        2.18161670        0.81301060
 C            1.38095913        3.42793185        1.38024320
 C            3.17292882        2.32734851       -0.53094664
 C            3.03173259       -0.11129786       -0.79545566
 C            3.16784211        1.14956137       -1.37491192
 C            2.30302068       -2.39999890       -0.97306467
 C            2.52870891       -1.16589014       -1.56320267
 C            0.58119678       -3.81213446       -0.20891369
 C            1.15828793       -3.19627104       -1.39748059
 C           -1.49734065       -3.32016316        0.97974251
 C           -0.79197028       -3.96607720       -0.11782026
 C           -3.06546159       -1.43607658        0.77768449
 C           -2.71900461       -2.74328544        0.44521562
 C           -3.87855681       -0.72930433       -0.10690774
 C           -3.16497431        1.38296084        0.98474554
 C           -4.02290704        0.70122618        0.04470460
 C           -1.24652092        2.84723882        0.66593300
 C           -2.54791515        2.50480140        0.30449039
 C            1.02430684        3.39494229        0.03445004
 C            2.01208597        3.11706555       -0.91393963
 C           -0.32298647        3.24397487       -0.31004030
 C            2.38712041        1.48214223       -2.55327115
 C            1.63413917        2.69212353       -2.25224148
 C            1.94602904       -0.91080849       -2.80220504
 C            1.78947945        0.45588713       -3.26826356
 C            0.33284080       -2.72796180       -2.42323814
 C            0.75941031       -1.65246753       -3.19704579
 C           -1.58532786       -3.80040045       -1.31776373
 C           -2.83326976       -3.16297366       -0.94114626
 C           -1.02214547       -3.05686337       -2.42987065
 C           -3.78487885       -1.00520905       -1.53308785
 C           -3.14504754       -2.16116810       -1.94432502
 C           -1.99538134       -2.04924713       -2.82883134
 C           -3.82177327        1.30758907       -1.26178673
 C           -2.92302574        2.43556655       -1.09796466
 C           -3.45359818        0.24697546       -2.18367530
 C           -0.67684985        3.21302012       -1.65827414
 C            0.30632559        2.79544889       -2.64068789
 C           -1.95390940        2.65571724       -2.06123758
 C            0.42691451        0.60589538       -3.75671798
 C           -0.22217733       -0.69083481       -3.67442087
 C           -1.54089548       -0.79495333       -3.23669829
 C           -2.26555447        0.35762476       -2.90413077
 C           -0.29691687        1.74756689       -3.45138090
 C           -1.68680251        1.62013655       -3.05033371
