   70
C70 / DATE: 7/ 1/2024 / Origin: Program Fullerene / C70 from database
 C            1.25143557       -0.11524915        4.45462342
 C            2.52073713       -0.34441019        3.79478721
 C            2.41570361       -1.60228566        3.07128137
 C            0.41480617       -1.27648219        4.19826029
 C            1.04328303       -2.05626973        3.15882150
 C           -0.92366521       -0.80418783        3.95529033
 C            0.47885899        1.06973534        4.11771672
 C           -0.89050510        0.64735613        3.88766742
 C            1.02837452        2.04376532        3.29630702
 C            3.02689809        0.65498553        2.87076561
 C            2.36355238        1.86645625        2.73643057
 C            2.98464066       -1.40063769        1.75962933
 C            3.47440528       -0.03784802        1.67476674
 C            2.33091095       -1.91436432        0.65329004
 C            0.33246105       -2.29458098        1.98236838
 C            1.02282996       -2.40656680        0.77354927
 C           -1.70294257       -1.45123012        3.01188844
 C           -1.06160458       -2.14783184        1.96780864
 C           -2.90006608       -0.81537672        2.73644981
 C           -1.66456743        1.26728747        2.90304892
 C           -2.84932156        0.62701229        2.55709702
 C            0.19387505        2.65285918        2.27305382
 C           -1.03047297        2.07553050        1.95176144
 C            2.38603494        2.53381322        1.45066903
 C            1.07038293        3.10618903        1.21362327
 C            3.41039395        0.60167506        0.43607041
 C            3.05674359        1.95856496        0.37586026
 C            2.77079858       -1.48926890       -0.59144630
 C            3.29249757       -0.19607862       -0.71059642
 C            2.29555400       -2.16425738       -1.70634091
 C            0.32982831       -2.77125587       -0.38163080
 C            1.05540818       -2.90514422       -1.56633170
 C           -1.76822831       -2.44137498        0.78831832
 C           -1.06944786       -2.65191291       -0.41476116
 C           -3.75400224       -1.36287292        1.71767935
 C           -3.15467499       -2.26738435        0.76505929
 C           -3.46088338        0.90912619        1.27675957
 C           -4.29156297       -0.24036513        0.96825228
 C           -1.45446477        2.06349101        0.61302773
 C           -2.68493326        1.48271345        0.27363223
 C            0.60246962        3.15418228       -0.09214907
 C           -0.69486198        2.71265667       -0.37146908
 C            2.84574000        2.54701701       -0.86672849
 C            1.55683775        3.17703112       -1.11065300
 C            3.40450942        0.39489384       -1.96462412
 C            3.22187864        1.82582105       -2.06445337
 C            2.29598376       -1.51613654       -3.00749887
 C            2.73551402       -0.20597896       -3.10377756
 C            0.36757383       -2.84005870       -2.83287937
 C            1.06434013       -1.88398489       -3.67749274
 C           -1.75073636       -2.59451943       -1.64880796
 C           -1.02697785       -2.48419312       -2.82503811
 C           -3.81335762       -2.00066324       -0.49194517
 C           -4.39385804       -0.66750671       -0.40668491
 C           -3.02155838       -2.04782106       -1.69460861
 C           -3.01571766        1.26018070       -1.07047358
 C           -3.75632636        0.13741878       -1.42732988
 C           -3.18924000       -0.78380863       -2.39319829
 C           -1.12864459        2.68815662       -1.69270158
 C           -2.23881372        1.83603482       -2.06236555
 C            1.17178782        2.89928900       -2.48390151
 C            2.20877789        2.07712541       -3.07771652
 C            1.84390039        0.80029334       -3.66448598
 C           -0.15318837        2.61170581       -2.76474455
 C            0.12465885       -0.83515342       -4.03589318
 C           -1.19672834       -1.27486774       -3.61832426
 C           -2.15302204       -0.34157349       -3.21575015
 C           -1.81726109        1.01337845       -3.19109022
 C            0.49765523        0.49402852       -3.86486899
 C           -0.48040620        1.44372810       -3.57285310
