   70
C70 / DATE: 7/ 1/2024 / Origin: Program Fullerene / C70 from database
 C            1.15727748       -0.08454488        4.58063027
 C            2.39870697       -0.46489068        3.95094620
 C            2.22387319       -1.81221844        3.42034205
 C            0.30803625       -1.26225273        4.56762009
 C            0.81576218       -2.12290442        3.51929686
 C           -1.04899349       -0.79066177        4.46093349
 C            0.38418891        0.98490214        3.98080396
 C           -0.99717202        0.65083840        4.23627803
 C            0.74233268        1.45660479        2.71830776
 C            2.88764431        0.34122545        2.85329094
 C            2.06062705        1.30646701        2.27210554
 C            2.84562648       -1.83229365        2.11317781
 C            3.57374512       -0.58582245        1.98057802
 C            2.12008851       -2.28074232        1.01660090
 C            0.07552261       -2.28307856        2.34572944
 C            0.73613656       -2.49722515        1.13268478
 C           -1.88182536       -1.32879388        3.40825259
 C           -1.30394143       -2.03680191        2.34735390
 C           -1.98421743        0.94722377        3.21811885
 C           -2.78958767       -0.25187286        3.09166114
 C           -0.24588513        1.90610799        1.82963246
 C           -1.59890140        1.60594765        2.05037831
 C            0.13598753        2.48429544        0.61802473
 C            2.40767207        1.78636775        1.01107414
 C            1.49597680        2.55597731        0.29198432
 C            3.88487431       -0.14931801        0.70620516
 C            3.47251554        1.18902355        0.33198772
 C            2.67280863       -2.06870938       -0.24641689
 C            3.55577742       -1.00343898       -0.42516880
 C            2.01426449       -2.57490673       -1.35692111
 C           -0.00996192       -2.78151258       -0.00969230
 C            0.67415450       -3.09497392       -1.18028787
 C           -2.02999853       -2.12880533        1.15189324
 C           -1.36956391       -2.43979856       -0.04924119
 C           -3.55101569       -0.38778572        1.95427247
 C           -3.29969232       -1.54624376        1.11913982
 C           -2.48337462        1.57833452        0.96689183
 C           -3.59135110        0.73071232        1.03640336
 C           -0.83855376        2.73781113       -0.35311315
 C           -2.07878474        2.09817182       -0.26752922
 C           -0.50036014        3.42627690       -1.51408629
 C            1.88855341        3.03535703       -0.95582712
 C            0.89558890        3.57788575       -1.85760630
 C            3.50958844        1.23725023       -1.11744828
 C            3.39159012       -0.13584669       -1.58425578
 C            2.78645494        2.22376885       -1.75763181
 C            2.01510542       -1.79627683       -2.58602282
 C            2.43467575       -0.47131602       -2.54069943
 C            0.00251921       -2.97990564       -2.45372142
 C            0.82096488       -2.14169541       -3.31775010
 C           -2.04226522       -2.32526405       -1.28366234
 C           -1.33912572       -2.45443783       -2.47239290
 C           -3.91994889       -1.24647857       -0.15088995
 C           -4.14628980        0.19244928       -0.18317655
 C           -3.22168248       -1.60253718       -1.36027916
 C           -2.78889141        1.77932961       -1.44008965
 C           -3.63797933        0.68651626       -1.43761921
 C           -3.27506097       -0.45780851       -2.25519587
 C           -1.19275100        3.09238858       -2.73791491
 C           -2.23670118        2.09600462       -2.67052040
 C            1.09901346        2.94275334       -3.15361734
 C            2.05274116        1.87075531       -2.95439586
 C            1.66636056        0.54021015       -3.14103623
 C           -0.20010583        2.62078510       -3.68962038
 C           -0.01068645       -1.07332413       -3.82271743
 C           -1.38312645       -1.35817272       -3.43079169
 C           -2.27138556       -0.30062437       -3.21494469
 C           -1.87486938        0.99707795       -3.55550367
 C            0.44363643        0.23906049       -3.77261137
 C           -0.50634190        1.23540410       -3.98220072
