   70
C70 / DATE: 7/ 1/2024 / Origin: Program Fullerene / C70 from database
 C            1.39532025       -0.19297125        5.21484945
 C            0.69130337       -1.38044457        4.76096102
 C            1.62162383       -2.19122801        3.99761171
 C            2.73323641       -0.22658736        4.65368496
 C            2.85161845       -1.43472099        3.85484849
 C            2.86305591        0.90415951        3.75223546
 C            0.71005236        0.95825888        4.65527752
 C            1.61450422        1.64023779        3.75106355
 C           -0.54528220       -0.95274635        4.12336334
 C           -0.55322389        0.49996858        4.11951641
 C           -0.98958620       -1.62311432        2.97947246
 C            1.13862294       -2.86068991        2.88615253
 C           -0.26823958       -2.72843096        2.53702770
 C            1.87998208       -2.78237720        1.63598385
 C            3.28075180       -1.04887645        2.51859699
 C            3.34562505        0.40198992        2.48420867
 C            2.74750334       -1.71699177        1.41200850
 C            2.91675519        1.02476420        1.32671158
 C            1.11157985        2.07304825        2.52602808
 C            1.93457938        2.01879995        1.40290707
 C           -1.05171031        1.12450496        2.99121832
 C           -0.26749198        2.07412307        2.32651747
 C           -1.81412807       -0.94026784        2.07285946
 C           -1.99711264        0.43246329        2.25340407
 C           -2.13829973       -1.52560362        0.83749885
 C           -0.38120824       -3.13657741        1.15417778
 C            0.95571575       -3.17016003        0.59343237
 C           -1.38507359       -2.60582853        0.36167585
 C            1.11595116       -2.66867305       -0.68733517
 C            2.70746706       -1.05390784        0.17635724
 C            3.02285193        0.30631358        0.14785948
 C            2.02851351       -1.63029976       -0.91020206
 C            2.88851397        1.01900864       -1.02778719
 C            1.46497563        2.56797576        0.20795379
 C            2.17115014        2.27603596       -0.95885849
 C           -0.76731943        2.62405870        1.14424262
 C            0.12390764        2.96138196        0.11796053
 C           -2.71084704        1.15971201        1.32076864
 C           -2.10593113        2.38350080        0.83507947
 C           -2.99921883       -0.85322630       -0.04475074
 C           -3.30664143        0.48165507        0.19024986
 C           -3.20030549       -1.35801325       -1.32987110
 C           -1.25538612       -2.77183727       -1.01258604
 C            0.03828894       -2.80435085       -1.55519855
 C           -2.34471980       -2.42779247       -1.79823671
 C            0.25523049       -2.49311546       -2.88874331
 C            2.03075487       -0.97961499       -2.15449060
 C            2.47049688        0.33648686       -2.23287846
 C            1.23366939       -1.46942408       -3.18963676
 C            1.56741984        2.51004016       -2.25550144
 C            1.72860107        1.29283364       -3.04240304
 C           -0.37427851        3.43799035       -1.09836536
 C            0.38065829        3.21765578       -2.32204557
 C           -2.59787128        2.61468868       -0.50844303
 C           -3.32374410        1.41979157       -0.92328214
 C           -1.78451264        3.27205229       -1.41390725
 C           -3.38093554       -0.43061546       -2.43948709
 C           -3.19946661        0.93245858       -2.22277929
 C           -2.19760093       -2.29789529       -3.23413250
 C           -0.86595717       -2.33134606       -3.79266915
 C           -2.82126946       -1.04678707       -3.63143606
 C            0.60855541       -0.53085351       -4.11282961
 C            0.69427002        0.83461574       -3.85593974
 C           -0.65930587       -1.10110670       -4.53824790
 C           -1.86439835       -0.29933416       -4.42713682
 C           -0.55691881        2.90434946       -3.38180862
 C           -1.89730278        2.93802714       -2.81960638
 C           -2.56858581        1.70616107       -3.19950813
 C           -0.41060056        1.65193880       -4.10464647
 C           -1.73863227        1.06475914       -4.20901434
