   70
C70 / DATE: 7/ 1/2024 / Origin: Program Fullerene / C70 from database
 C            1.62475999        0.10193888        4.58666379
 C            0.82685991       -1.10832678        4.52277475
 C            1.44903994       -2.00653913        3.56773870
 C            2.67077809       -0.00199219        3.58331413
 C            2.61232546       -1.32817384        3.01023004
 C            2.54972077        1.12757799        2.68703772
 C            0.76729618        1.21166383        4.21374650
 C            1.39502281        1.90078738        3.10900871
 C           -0.55265095       -0.72257319        4.30858562
 C           -0.57535113        0.70413574        4.01978937
 C           -1.35573282       -1.56325898        3.55562698
 C            0.64320584       -2.76490151        2.71787382
 C           -0.74668684       -2.65981487        2.80993670
 C            1.21218645       -3.26700209        1.55068251
 C            2.87774512       -1.48157690        1.65497113
 C            2.42776459       -2.64952182        1.04951675
 C            2.73778085        0.92089530        1.32074162
 C            3.11387824       -0.34804024        0.86438300
 C            2.16771713        1.83408288        0.42407475
 C            0.59143741        2.43017653        2.11497799
 C            1.19236977        2.71298546        0.89993112
 C           -1.31035671        1.16479544        2.92805199
 C           -0.78782984        2.19363948        2.13061810
 C           -2.38040950       -0.97937955        2.71017667
 C           -2.36422830        0.38628318        2.44687238
 C           -1.57488998       -2.90406692        1.63640642
 C           -2.63319521       -1.90409667        1.61860924
 C            0.37378084       -3.58247441        0.40406854
 C           -0.98830377       -3.29818580        0.43873511
 C            2.42990574       -2.76411594       -0.39646716
 C            1.13963108       -3.29477768       -0.80175084
 C            3.38503612       -0.51415245       -0.48960050
 C            3.00966559       -1.75746355       -1.14686800
 C            2.34938303        1.66172509       -0.95326778
 C            3.08645547        0.57230839       -1.40710689
 C            1.61094849        2.42409617       -1.86553427
 C            0.49104448        3.51319016        0.01851468
 C            0.78622149        3.44052227       -1.39629366
 C           -1.56253388        2.72977614        1.09579480
 C           -0.95040996        3.58419773        0.17702852
 C           -3.11935081        0.85215313        1.38044515
 C           -2.76376474        2.11062313        0.75295922
 C           -3.08735347       -1.40656487        0.40004977
 C           -3.50568452       -0.07848373        0.32802412
 C           -1.65889289       -3.04425743       -0.75374759
 C           -2.75108790       -2.08164017       -0.77047597
 C            0.48913039       -2.76730471       -1.91415648
 C           -0.89784440       -2.87018052       -1.98057072
 C            2.43023484       -1.41667825       -2.43227759
 C            2.76234955       -0.02491143       -2.68932454
 C            1.16721369       -1.90015035       -2.77855407
 C            1.45078117        1.98031760       -3.18181048
 C            1.99179135        0.69359647       -3.58844697
 C            0.16652170        2.15403891       -3.85084230
 C           -0.44227100        3.73861889       -2.11014087
 C           -1.52840441        3.75127429       -1.14453298
 C           -0.82811517        2.87543364       -3.20771438
 C           -3.17588019        2.02923785       -0.64292494
 C           -3.44020164        0.63370997       -0.93922295
 C           -2.53571996        2.80980858       -1.59031489
 C           -2.05141172        2.18688956       -2.81193300
 C           -2.68440797       -1.35676076       -2.03115802
 C           -1.65277024       -1.97854745       -2.84244070
 C           -2.83311615        0.02761504       -2.03503085
 C           -2.15287191        0.80312656       -2.98148208
 C            0.47444819       -1.28107373       -3.81772828
 C            0.95490936       -0.00656848       -4.32526794
 C           -0.18824856        0.88249319       -4.44841660
 C           -0.97612559       -1.21109249       -3.77196655
 C           -1.35323897        0.18093408       -3.94058955
