   70
C70 / DATE: 7/ 1/2024 / Origin: Program Fullerene / C70 from database
 C            1.59215009       -0.05807407        4.60807005
 C            0.79125541       -1.24292036        4.37185842
 C            1.34022047       -1.94281290        3.22299273
 C            2.65306367       -0.04018026        3.61863016
 C            2.49912735       -1.19646868        2.76266654
 C            2.64062322        1.26145492        2.98952220
 C            0.74314981        1.09595224        4.36136297
 C            1.39233862        1.91256257        3.36404413
 C           -0.59364600       -0.82399490        4.31242090
 C           -0.59018076        0.61314021        4.08446122
 C           -1.46169570       -1.59379523        3.55717539
 C            0.45582429       -2.46670048        2.28230582
 C           -0.89859526       -2.54607771        2.60784612
 C            0.82862694       -2.50172148        0.93819217
 C            2.67872973       -1.02144116        1.39797778
 C            1.99799079       -1.85801282        0.51639284
 C            3.03814889        1.35919513        1.66118154
 C            3.21347009        0.18012513        0.92366447
 C            2.64856499        2.51201513        0.98928631
 C            0.63208041        2.49578788        2.35448422
 C            1.34863934        3.07671453        1.31218386
 C           -1.28798092        1.11724810        2.98788867
 C           -0.67395286        2.03198716        2.11107677
 C           -2.54660809       -0.92645103        2.86591631
 C           -2.43189713        0.43343569        2.57623409
 C           -1.88098641       -2.73264138        1.54874564
 C           -2.99481959       -1.84172878        1.83123931
 C           -0.07347279       -2.98302533       -0.00774579
 C           -1.44719384       -2.88643754        0.23607734
 C            0.38370863       -3.24731815       -1.28976358
 C            2.33891352       -1.84019045       -0.83801736
 C            1.59586636       -2.59105673       -1.74358011
 C            3.54092705        0.26622741       -0.42660705
 C            3.12351607       -0.79868524       -1.32484485
 C            2.84127073        2.61327513       -0.44523484
 C            3.37516352        1.52966696       -1.12772872
 C            0.68575402        3.37680050        0.06160844
 C            1.68770181        3.31219516       -0.98963324
 C           -1.32237047        2.38457351        0.91699996
 C           -0.58000985        2.85772402       -0.16497177
 C           -3.21591344        0.97385549        1.56682898
 C           -2.63242306        1.97340179        0.69457761
 C           -3.73984456       -1.34006193        0.77677584
 C           -4.02229105        0.08385705        0.74791226
 C           -2.33083956       -2.59751309       -0.81224262
 C           -3.41322316       -1.75177458       -0.57783372
 C           -0.56540997       -3.23587759       -2.38129980
 C           -1.89068030       -2.71326579       -2.12672339
 C            1.34121039       -2.04966619       -3.07113674
 C            0.01575908       -2.47964774       -3.47799705
 C            2.79294276       -0.20266073       -2.61053956
 C            2.92825957        1.24167846       -2.48127787
 C            1.76048273       -0.75528060       -3.36803412
 C            1.27628685        3.05071715       -2.28815867
 C            2.00264837        2.07831455       -3.09074864
 C           -0.98362465        2.56187376       -1.47042957
 C           -0.13805991        2.84433028       -2.53773510
 C           -3.04967337        1.68002069       -0.66723808
 C           -3.93013357        0.53425403       -0.62964166
 C           -3.59918842       -0.60700525       -1.45567633
 C           -2.10382924        1.76033988       -1.67974240
 C           -2.10456852       -1.58763763       -3.02292881
 C           -0.94663528       -1.47804308       -3.89614364
 C           -2.71097154       -0.44049034       -2.51310279
 C           -2.09431665        0.80238387       -2.70504222
 C            0.93860662        0.07020264       -4.13988196
 C            1.06659334        1.51342886       -4.04368597
 C           -0.25290143        2.05130508       -3.74404592
 C           -0.48448365       -0.21967893       -4.24790444
 C           -1.19719445        0.94829318       -3.76128267
