   70
C70 / DATE: 7/ 1/2024 / Origin: Program Fullerene / C70 from database
 C            1.42558435        0.28052992        5.14479071
 C            0.64294892       -0.93341967        5.25473067
 C            1.41225661       -2.00334463        4.64825044
 C            2.54735446        0.00591151        4.25774833
 C            2.53673444       -1.40325281        3.94666394
 C            2.47451549        0.94735268        3.16105330
 C            0.59300764        1.28055952        4.50008460
 C            1.36471826        1.84141403        3.42121305
 C           -0.68990932       -0.65547085        4.73933544
 C           -0.67868711        0.67883979        4.16051411
 C           -1.36757280       -1.65813051        4.06748117
 C            0.73515976       -2.88690494        3.72107864
 C           -0.65349056       -2.87490475        3.68824722
 C            2.45616458       -1.80356491        2.55337749
 C            1.46930249       -2.86025493        2.45929048
 C            2.64471518        0.51364641        1.84281219
 C            2.50267185       -0.84890070        1.53885797
 C            2.33914273        1.44126112        0.84226682
 C            0.69520738        2.29724629        2.30461504
 C            1.47640253        2.48434096        1.18298081
 C           -1.18483946        0.88818003        2.87177969
 C           -0.63108422        1.89951989        2.08492971
 C           -2.20954382       -1.28983384        2.94417970
 C           -1.96575779       -0.09607286        2.26045393
 C           -1.30352855       -3.39288038        2.50636227
 C           -2.40716402       -2.49972550        2.18728047
 C            0.77705280       -3.02336481        1.26009635
 C           -0.51511562       -3.53826253        1.29723876
 C            2.04515053       -1.21361956        0.27135635
 C            1.18087280       -2.30374005        0.12812725
 C            2.39200840        1.03449117       -0.49045315
 C            2.18295253       -0.31474448       -0.78100227
 C            2.17928440        1.98809307       -1.48655680
 C            0.90179178        3.22475618        0.17463976
 C            1.44585141        3.12399456       -1.15863905
 C           -1.18759361        2.17145212        0.83032522
 C           -0.54017728        3.13054205        0.05668691
 C           -2.26605974        0.00355787        0.88817593
 C           -1.94763273        1.18218316        0.19019145
 C           -2.46069044       -2.39228191        0.75249135
 C           -1.41082587       -3.22989547        0.21016749
 C           -2.62837746       -1.14379508        0.16498860
 C            0.46003359       -2.44567864       -1.06368814
 C           -0.88478305       -2.82163772       -0.99802700
 C            1.78488858       -0.69508162       -2.06301451
 C            0.88713368       -1.75887399       -2.21160569
 C            2.23245890        1.58810944       -2.81649274
 C            2.01822777        0.18498759       -3.11962855
 C            1.53370557        2.37799468       -3.82086766
 C            0.38391511        3.56831202       -2.03925401
 C           -0.86091805        3.26639785       -1.34502504
 C            0.47925059        3.28160552       -3.39021690
 C           -2.18180042        1.25728441       -1.19994273
 C           -1.75808035        2.38494631       -1.92714837
 C           -2.50445654       -1.11350970       -1.21896250
 C           -1.75751352       -2.13463974       -1.81729165
 C           -2.61694495        0.10711708       -1.87137717
 C            0.06152280       -1.81101479       -3.34267067
 C           -1.36129058       -1.98872384       -3.12890972
 C            1.21909572        0.10747932       -4.33120195
 C            0.97179019        1.46455807       -4.79921721
 C            0.22233137       -0.85240050       -4.42280483
 C           -0.73522454        2.91091212       -4.09301234
 C           -1.86328365        2.41567543       -3.31703466
 C           -0.38846957        1.89677095       -5.07302271
 C           -2.69357735        0.08236023       -3.26178823
 C           -2.06378479       -1.02758480       -3.94543763
 C           -1.10962834       -0.48449940       -4.89013242
 C           -2.39612334        1.27448456       -4.01944024
 C           -1.45127574        0.91314201       -5.07099707
