   70
C70 / DATE: 7/ 1/2024 / Origin: Program Fullerene / C70 from database
 C            1.13619797       -0.06221226        4.48165172
 C            2.38206332       -0.36386818        3.81535426
 C            2.36650586       -1.77508193        3.46578015
 C            0.30964749       -1.25969640        4.45721606
 C            1.04322610       -2.29348661        3.75342083
 C           -1.01038372       -0.87796876        3.98186041
 C            0.33425052        1.03017812        3.97381801
 C           -1.04161907        0.57325356        3.88976813
 C            0.82129658        1.83880846        2.95306256
 C            2.72871726        0.38338914        2.61884283
 C            1.88784020        1.39154031        2.15977084
 C            2.89117740       -1.89631583        2.11892500
 C            3.25998438       -0.56390117        1.66168619
 C            2.29053703       -2.76811183        1.21401262
 C            0.38975936       -3.04090547        2.78436916
 C            1.07091370       -3.36951040        1.53871133
 C           -1.63801126       -1.63041205        2.99450080
 C           -1.00364709       -2.75676984        2.46603795
 C           -2.68291284       -1.04705259        2.28615621
 C           -1.88922328        1.18378358        2.96579350
 C           -2.83075870        0.40221873        2.29730348
 C           -0.07682858        2.74634097        2.41221646
 C           -1.49157003        2.39897653        2.40745169
 C            0.22486397        3.38278888        1.14718306
 C            1.95430121        1.75772268        0.81238705
 C            1.28288099        2.90308323        0.38331939
 C            3.16669317       -0.28585189        0.30255315
 C            2.55680652        0.89973082       -0.12135230
 C            2.63176948       -2.63095268       -0.12717049
 C            3.20094506       -1.36716240       -0.56763714
 C            1.68717162       -3.04537974       -1.14816673
 C            0.04978994       -3.53333133        0.51134313
 C           -1.22124132       -3.11925504        1.07218443
 C            0.35018225       -3.20595609       -0.80332727
 C           -2.98357672       -1.50998034        0.94213475
 C           -2.09034892       -2.36265694        0.29843285
 C           -3.31604371        0.80819490        0.98431376
 C           -3.57542353       -0.39811284        0.21870700
 C           -2.04040189        2.82687052        1.12979905
 C           -1.04513701        3.67508038        0.50179734
 C           -2.76255715        1.92224580        0.35885650
 C           -1.06716545        3.83104005       -0.87286306
 C            1.36894619        3.29548544       -0.94773010
 C            0.20479286        3.90736387       -1.56691277
 C            2.41059187        1.14574786       -1.49166235
 C            1.96056664        2.39220756       -1.91653291
 C            2.83354714       -1.17900439       -1.95704700
 C            2.03223595       -2.32753025       -2.35959557
 C            2.48078203        0.08901240       -2.40592979
 C            1.05785286       -2.15432002       -3.32908438
 C           -0.64221448       -2.66401481       -1.62599283
 C           -1.84415651       -2.20635890       -1.06821746
 C           -0.33155145       -2.36697369       -2.95569553
 C           -3.45807426       -0.35906389       -1.15831364
 C           -2.70028617       -1.40358891       -1.82080780
 C           -2.69375705        1.98162999       -1.03848713
 C           -1.94699107        2.98139553       -1.66055004
 C           -3.11819119        0.89740967       -1.80336350
 C            0.03262306        3.31594564       -2.87906837
 C            1.19720103        2.49846698       -3.15176174
 C           -1.27753153        2.69061855       -2.92117918
 C            1.83406284        0.19491471       -3.63590155
 C            1.11520394       -0.95825747       -4.14801540
 C            1.02721365        1.36369002       -3.92582931
 C           -1.14190542       -1.41492895       -3.69914093
 C           -2.25985731       -0.86882894       -3.09429763
 C           -2.41950893        0.58033476       -3.04044618
 C           -1.40025581        1.42294121       -3.48653371
 C           -0.24725007       -0.53936398       -4.42929799
 C           -0.32475991        0.89375594       -4.20280986
