   70
C70 / DATE: 7/ 1/2024 / Origin: Program Fullerene / C70 from database
 C            1.27893302       -0.03039002        4.46846522
 C            2.61497237       -0.26225111        3.95581387
 C            2.63585629       -1.58460225        3.35362182
 C            0.48332445       -1.21234836        4.18193221
 C            1.28248237       -2.11605270        3.38462989
 C           -0.78034921       -0.77260458        3.64354127
 C            0.53718119        1.13022799        4.00238217
 C           -0.75038393        0.67123966        3.51036512
 C            1.19899225        2.13237598        3.31153819
 C            3.16644812        0.67441430        2.99435478
 C            2.55989390        1.91220564        2.82658274
 C            3.31193369       -1.48389576        2.07324401
 C            3.55963390       -0.07419196        1.81148325
 C            2.86899189       -2.28681731        1.03663903
 C            0.74208897       -2.64466054        2.21275006
 C            1.61534136       -3.00926592        1.19530505
 C           -1.35782932       -1.48627079        2.61121046
 C           -0.61115181       -2.44168920        1.90713853
 C           -2.39987136       -0.86761717        1.94880477
 C           -1.31526105        1.23874568        2.36227861
 C           -2.27327054        0.49753303        1.66470957
 C            0.48227284        2.85506981        2.27667299
 C           -0.67206267        2.30333135        1.71890768
 C            2.66077286        2.56626679        1.53504150
 C            1.49093768        3.41939690        1.40380812
 C            3.29429566        0.46135513        0.54886356
 C            3.09926715        1.84019232        0.42687062
 C            2.88324857       -1.75815978       -0.31290778
 C            2.95832420       -0.38688133       -0.51483061
 C            1.09476059       -3.26023229       -0.13179929
 C            1.92160995       -2.52340375       -1.07829060
 C           -1.14115511       -2.95416679        0.70960728
 C           -0.27844817       -3.30214461       -0.33953901
 C           -3.17581137       -1.66802013        1.13352240
 C           -2.50260758       -2.75563353        0.44987096
 C           -4.09231755       -1.03929600        0.20978858
 C           -2.78912632        1.00415740        0.47194527
 C           -3.85618250        0.34682067       -0.13471381
 C           -1.03715620        2.65475718        0.41290546
 C           -2.04419178        1.94366952       -0.24541982
 C            1.11691755        3.82870448        0.13730678
 C           -0.22964937        3.52439354       -0.32212277
 C            2.90586512        2.39021177       -0.83574125
 C            2.02140058        3.53704557       -0.95863095
 C            2.46240553        0.14616006       -1.70426150
 C            2.63205685        1.50496168       -1.95326368
 C            1.30894792       -1.94118918       -2.18163522
 C            1.61637901       -0.61789606       -2.52163148
 C           -0.71561428       -3.21636946       -1.65968437
 C            0.11337022       -2.50749243       -2.62117234
 C           -3.00285291       -2.78439172       -0.91508325
 C           -4.08131265       -1.81508912       -1.01722485
 C           -2.10405142       -2.92665661       -1.96046365
 C           -4.03765074        0.46676834       -1.56460984
 C           -4.09136277       -0.87736266       -2.12317303
 C           -2.12399153        1.99575535       -1.64615123
 C           -3.06058115        1.21948640       -2.31973422
 C           -0.17661460        3.38257522       -1.76552290
 C            1.22301104        3.36138739       -2.15482087
 C            1.72483163        2.19555367       -2.85640786
 C           -1.04409935        2.48797892       -2.37528728
 C            0.91926984        0.00119472       -3.55876983
 C            0.82172070        1.44755471       -3.59148958
 C           -0.59236726        1.76614281       -3.48131318
 C           -0.76263338       -1.77436174       -3.51850654
 C           -2.13530304       -2.01016730       -3.09606959
 C           -3.06004059       -0.97058850       -3.14076773
 C           -2.60637772        0.38189707       -3.41576803
 C           -0.37865207       -0.51661015       -3.95936315
 C           -1.32740796        0.58923978       -3.91573076
