   70
C70 / DATE: 7/ 1/2024 / Origin: Program Fullerene / C70 from database
 C            1.47937077        0.27206679        5.08834634
 C            0.71802471       -0.93793844        4.84541541
 C            1.62430205       -1.89379876        4.25067115
 C            2.70199538        0.18372182        4.30379477
 C            2.81315484       -1.17254083        3.82009055
 C            2.67783142        1.26340277        3.33670504
 C            0.71075394        1.38507874        4.56686601
 C            1.59060898        2.15198031        3.70825556
 C           -0.48558102       -0.58060833        4.10753253
 C           -0.51844992        0.86583895        3.98787395
 C           -0.86906583       -1.35196567        3.01209989
 C            1.14896969       -2.64461743        3.11179298
 C           -0.18613296       -2.54597241        2.74260855
 C            2.95977386       -1.39408696        2.39270326
 C            2.13844613       -2.53462444        2.05380936
 C            2.89004405        1.00114403        1.98118576
 C            2.97161989       -0.32184459        1.51376017
 C            2.61074698        2.02186519        1.06973394
 C            1.00071400        2.89592401        2.70210568
 C            1.68490424        3.00027847        1.42508287
 C           -0.97410416        1.43666807        2.80230061
 C           -0.39527278        2.63385136        2.38775309
 C           -1.63247572       -0.75283869        2.00069259
 C           -1.62379990        0.63768777        1.85561398
 C           -2.16620498       -1.54994497        0.98506993
 C           -0.52927187       -3.24392383        1.59954630
 C           -1.72155120       -2.86255935        0.88005093
 C            1.68183227       -2.68676907        0.74420453
 C            0.51176359       -3.41988003        0.59817174
 C            2.74396651       -0.58559211        0.16559347
 C            1.97033096       -1.69463598       -0.20845525
 C            2.85636007        1.80042757       -0.28004075
 C            2.98172988        0.43071202       -0.74199850
 C            2.07197682        2.51627954       -1.27297006
 C            0.68132260        3.41124248        0.45754084
 C           -0.61021613        3.08930786        1.03128342
 C            0.88074875        3.13378936       -0.89029086
 C           -2.05202092        1.20489180        0.65250795
 C           -1.51592516        2.42498232        0.22715648
 C           -2.78986648       -0.95894565       -0.12020352
 C           -2.78526384        0.43299266       -0.25281817
 C           -3.13399913       -1.76425318       -1.21237560
 C           -1.57204957       -3.44767452       -0.43380916
 C           -0.13910323       -3.46940223       -0.68873241
 C           -2.40079520       -2.99894812       -1.44201123
 C            1.30507375       -1.70413632       -1.45257175
 C            0.36623637       -2.70741758       -1.73445387
 C            2.41173125        0.35348304       -2.07061309
 C            2.10233906        1.71186673       -2.48301805
 C            1.52031542       -0.66941253       -2.37699915
 C            1.10988345        1.90257459       -3.42739948
 C           -0.23873316        3.00741181       -1.71914111
 C           -1.47749995        2.69788178       -1.13254828
 C           -0.01536470        2.74403815       -3.06974136
 C           -3.21161177        1.02634237       -1.44483758
 C           -2.53369054        2.22640389       -1.89907038
 C           -3.38126484       -1.16712326       -2.51397677
 C           -3.49137536        0.20955999       -2.61430485
 C           -1.83276410       -2.90739702       -2.77181427
 C           -0.41045507       -2.62661684       -2.88639868
 C           -2.55454420       -1.87162601       -3.48129027
 C            0.67403183       -0.51349286       -3.48046834
 C            0.55060455        0.73771924       -4.08434984
 C           -0.25872192       -1.49788293       -3.78079133
 C           -1.58645341       -1.11802519       -4.25541991
 C           -1.11891820        2.37390622       -3.93512439
 C           -2.42009551        2.17228985       -3.34149472
 C           -2.91516626        0.87796077       -3.77411537
 C           -0.74024557        1.14302918       -4.61354165
 C           -1.85345348        0.21789465       -4.52072962
