   70
C70 / DATE: 7/ 1/2024 / Origin: Program Fullerene / C70 from database
 C            1.23335322        0.10319547        4.36001124
 C            2.52858002       -0.15365606        3.77135005
 C            2.57886082       -1.56683125        3.44933200
 C            0.42088830       -1.09375385        4.19416326
 C            1.21947588       -2.07544006        3.49383305
 C           -0.84394059       -0.69100347        3.61718761
 C            0.46478143        1.21740194        3.85143591
 C           -0.89448368        0.75747620        3.62762367
 C            1.02437638        2.06538965        2.90165237
 C            2.90426095        0.58228382        2.57615935
 C            2.06674611        1.58732006        2.09565089
 C            3.31567327       -1.70844839        2.21131755
 C            3.47032416       -0.37260966        1.63990458
 C            2.95850702       -2.74924270        1.36849169
 C            0.70487693       -2.69393683        2.35607177
 C            1.60382303       -3.28222515        1.46669237
 C           -1.32436999       -1.34995671        2.50074747
 C           -0.59317931       -2.39491921        1.91813314
 C           -2.31466296       -0.71937808        1.75887049
 C           -1.64640393        1.42663076        2.66130718
 C           -2.31536522        0.67956350        1.67427572
 C            0.17283457        3.02857202        2.38138450
 C           -1.25128792        2.73014590        2.37684838
 C            0.48268511        3.63709590        1.10525750
 C            2.07505995        1.87990668        0.72726353
 C            1.39071041        3.00720110        0.26091646
 C            3.27417307       -0.18456939        0.27211399
 C            2.61769973        0.96160938       -0.18329619
 C            3.26906156       -2.61507584       -0.03798830
 C            3.39628293       -1.27820525       -0.58474957
 C            1.16172775       -3.63087442        0.12793802
 C            2.23408982       -3.30136788       -0.78929950
 C           -1.06028489       -2.95416661        0.72567739
 C           -0.13984161       -3.33647012       -0.25227247
 C           -2.99597692       -1.46946963        0.81143710
 C           -2.37615463       -2.69780282        0.34729281
 C           -3.54437289       -0.79551416       -0.34604212
 C           -2.77536432        1.29778145        0.49712879
 C           -3.14559963        0.51325489       -0.59213069
 C           -1.84420528        3.42686916        1.26038642
 C           -0.77450291        4.11614323        0.55923744
 C           -2.58201974        2.65620108        0.28805398
 C           -1.00920967        3.96717680       -0.86137269
 C           -2.16927774        3.09664188       -1.02992699
 C            1.32280652        3.25972842       -1.10991257
 C            0.08947614        3.78644295       -1.68624574
 C            2.31558134        1.07131558       -1.54015795
 C            1.86466011        2.28494258       -2.03679587
 C            2.69727940       -1.26716792       -1.85826606
 C            1.91692292       -2.48865868       -1.94775733
 C            2.11533836       -0.08586243       -2.29179177
 C           -0.39382671       -3.03231545       -1.59219661
 C            0.59050804       -2.38767956       -2.34900574
 C           -2.76094951       -2.88614521       -1.04069683
 C           -3.59965537       -1.76164010       -1.42289719
 C           -1.71163369       -3.01097198       -2.03195482
 C           -3.20415367       -1.34410845       -2.74684801
 C           -2.06591953       -2.15762443       -3.15079883
 C           -2.83692381        0.94520219       -1.89399414
 C           -2.19802454        2.17717738       -2.07813049
 C           -2.83559393        0.04157871       -2.95818847
 C           -0.11670057        3.13797558       -2.96364487
 C            1.03049802        2.28530552       -3.22457853
 C           -1.30814431        2.32970041       -3.14439024
 C            1.02191036       -0.15931743       -3.15651818
 C            0.23132906       -1.31292205       -3.16314866
 C           -1.05864863       -1.25872909       -3.68454566
 C           -1.69917718        0.03257858       -3.85699714
 C            0.52878067        1.01498900       -3.71840581
 C           -0.90408808        1.16326257       -3.91020164
