   70
C70 / DATE: 7/ 1/2024 / Origin: Program Fullerene / C70 from database
 C            1.63316798       -0.07439689        4.67652750
 C            0.82662923       -1.25935276        4.47561084
 C            1.30227626       -1.94127711        3.28151097
 C            2.64177453       -0.05197187        3.63499798
 C            2.39613144       -1.15682553        2.73538828
 C            2.63450906        1.27420848        3.06863122
 C            0.76675924        1.07591215        4.46968751
 C            1.39602652        1.91817142        3.48275136
 C           -0.56026077       -0.84021032        4.50356742
 C           -0.56371436        0.58144742        4.19573944
 C           -1.46779231       -1.64120266        3.83784730
 C            0.34753835       -2.48043914        2.42128071
 C           -0.94000241       -2.64826342        2.93153865
 C            0.52974275       -2.37186363        1.03297900
 C            2.42219012       -0.90189795        1.37213627
 C            1.63752227       -1.67746728        0.52453224
 C            2.99358212        1.42941661        1.73919806
 C            2.95891453        0.30146381        0.89793541
 C            2.65847477        2.65731304        1.19367861
 C            0.61748606        2.51185315        2.49188571
 C            1.32792381        3.16180321        1.48341327
 C           -1.24054376        1.02307290        3.05623661
 C           -0.63789078        1.95409673        2.18685332
 C           -2.54606563       -0.99966461        3.11338169
 C           -2.35779445        0.29585196        2.63183509
 C           -2.01990891       -3.00323480        2.03910342
 C           -3.07493357       -2.01604626        2.22390739
 C           -0.45932805       -2.83671968        0.15313764
 C           -1.74679644       -3.08085882        0.62453252
 C           -0.31445679       -2.61059401       -1.21366404
 C            1.81196688       -1.55264088       -0.85200353
 C            0.92294864       -2.20742587       -1.70628634
 C            3.08744194        0.46780665       -0.48697635
 C            2.66735124       -0.55610247       -1.34237700
 C            2.93273496        2.89199533       -0.19905138
 C            3.26067010        1.74920611       -1.01694284
 C            0.69361615        3.41657469        0.20546744
 C            1.74730505        3.50175020       -0.78120055
 C           -1.22693424        2.21666029        0.94180293
 C           -0.46284103        2.72369120       -0.10329580
 C           -3.06505874        0.71346634        1.50789525
 C           -2.50013233        1.75033583        0.66852926
 C           -3.54339323       -1.61998280        0.91053006
 C           -2.85894894       -2.45303927       -0.06262173
 C           -3.69593021       -0.27097834        0.63657148
 C           -1.46596906       -2.39970227       -1.98007604
 C           -2.61965986       -1.95867471       -1.33729533
 C           -1.35315961       -2.17195783       -3.34356234
 C            1.12406939       -2.17778713       -3.08138008
 C           -0.03685815       -2.17733726       -3.95186179
 C            2.76411852       -0.34277211       -2.71709291
 C            2.06646454       -1.22893384       -3.62957213
 C            2.70891293        2.04737767       -2.32239926
 C            1.54225670        2.87460750       -2.06977590
 C            2.57458215        1.00655621       -3.21927541
 C           -0.72903228        2.33350967       -1.42533848
 C            0.28913002        2.36187175       -2.39406908
 C           -2.86447643        1.46861194       -0.70892017
 C           -3.53431322        0.17953204       -0.73256329
 C           -3.17331355       -0.73040024       -1.72035711
 C           -1.97418169        1.77208594       -1.73879251
 C           -2.08650294       -1.04852282       -3.88653146
 C           -2.79663064       -0.19704581       -2.94923126
 C           -2.14247785        1.10598055       -2.95323763
 C            0.05451323       -1.00943838       -4.81545978
 C            1.33646507       -0.38765478       -4.56722983
 C            1.36918149        0.95560887       -4.02123385
 C            0.20081206        1.53232821       -3.51233527
 C           -1.14270262       -0.21857712       -4.60990900
 C           -1.04318524        1.04709279       -3.89870238
