   70
C70 / DATE: 7/ 1/2024 / Origin: Program Fullerene / C70 from database
 C            1.55812445       -0.28490001        4.99358192
 C            0.70357292       -1.45878194        4.92559802
 C            1.25634364       -2.34774420        3.92380223
 C            2.60101029       -0.42950048        3.99415132
 C            2.46995297       -1.74588396        3.39916026
 C            2.55340475        0.72631987        3.11030715
 C            0.75948805        0.86164269        4.61377005
 C            1.45488562        1.56802436        3.54510178
 C           -0.60420720       -1.03705357        4.45323702
 C           -0.59556908        0.40554695        4.34844271
 C            0.20056645       -2.67214201        2.97794795
 C           -0.92803719       -1.80136529        3.26276318
 C            0.56381880       -2.86341384        1.65159697
 C            2.69428673       -1.86305152        2.03582605
 C            1.91716067       -2.77933548        1.33322191
 C            2.74154466        0.51375042        1.74806569
 C            3.16949232       -0.74849003        1.34238584
 C            2.08787672        1.33717810        0.82127243
 C            0.67111953        2.18844612        2.58152285
 C            1.13050799        2.25791512        1.26105549
 C           -1.24610234        0.98988235        3.27343537
 C           -0.70225281        2.16859440        2.79020845
 C           -1.55010514       -1.14678258        2.20155120
 C           -1.93885834        0.18559457        2.36026654
 C           -0.36713140       -2.57495942        0.65418299
 C           -1.38005638       -1.64640784        0.91283465
 C           -0.03964438       -2.88321908       -0.66693763
 C            2.30419676       -3.08093132        0.03868730
 C            1.26971744       -3.27770543       -0.96020876
 C            3.53105807       -0.92399193        0.01515583
 C            3.32072677       -2.23690994       -0.56270195
 C            2.18874035        1.04336062       -0.54170445
 C            3.07101754        0.05487181       -0.95612225
 C            1.21619575        1.51276976       -1.42325800
 C            0.32931573        2.92656352        0.32672237
 C            0.41848108        2.58610336       -1.03192876
 C           -1.48816323        2.90563282        1.93600658
 C           -0.83328669        3.52884077        0.81117677
 C           -2.59128146        0.83694438        1.30673176
 C           -2.63593017        2.22880898        1.37426417
 C           -2.01634123       -1.01403990       -0.15018288
 C           -2.66524471        0.21418679        0.04972745
 C           -0.87689285       -2.46925225       -1.70548816
 C           -1.90621887       -1.55876039       -1.42774525
 C           -0.42001372       -2.63206792       -3.01505348
 C            1.85529563       -2.92817348       -2.24439375
 C            2.98219889       -2.06026796       -1.95893493
 C            2.82783175       -0.63623919       -2.20884482
 C            1.00236803       -2.53995863       -3.25758619
 C            1.02800201        0.90125908       -2.67843768
 C            1.77579461       -0.23411770       -3.02454553
 C            1.19010487       -1.21622944       -3.82210084
 C           -0.02439120        1.31397181       -3.51360169
 C           -0.43709685        3.16985041       -1.96328119
 C           -0.78171630        2.42837872       -3.16032777
 C           -1.90242346        3.88778636       -0.09446000
 C           -3.01686524        2.99492647        0.21066886
 C           -1.65610375        3.80916397       -1.51283278
 C           -3.22894103        0.89881018       -1.04344143
 C           -2.23994394        2.32710308       -3.21135968
 C           -3.34317344        2.28881942       -1.00244215
 C           -2.75836564        3.05929901       -2.08179416
 C           -2.69139850       -1.03951001       -2.45142385
 C           -3.23354144        0.29661039       -2.30198867
 C           -2.78977261        1.08005016       -3.45480451
 C           -1.02931723       -1.88272273       -4.09308647
 C           -0.02884826       -0.91663125       -4.53713694
 C           -0.60855792        0.39620996       -4.38827934
 C           -2.24722848       -1.15593489       -3.82494774
 C           -2.04117936        0.19325885       -4.31304741
