   70
C70 / DATE: 7/ 1/2024 / Origin: Program Fullerene / C70 from database
 C            1.32757459        0.19497316        4.57831945
 C            2.53113513       -0.01624621        3.80361010
 C            2.48041520       -1.36497285        3.25938500
 C            0.49045061       -0.98446617        4.42300670
 C            1.15366318       -1.88642849        3.49609506
 C           -0.85641744       -0.53955818        4.10726473
 C            0.51440975        1.35721125        4.28889990
 C           -0.85993311        0.91078544        4.13177668
 C            0.83638011        2.18363327        3.13773847
 C            2.83567336        0.87946800        2.70032810
 C            1.95791779        1.90920455        2.34978367
 C            2.96083980       -1.30306472        1.89534216
 C            3.39841589        0.05657501        1.64600810
 C            2.25838751       -1.95426183        0.88867521
 C            0.42113686       -2.38287896        2.42361853
 C            1.03222095       -2.57504720        1.17665027
 C           -1.54066637       -1.17538988        3.07940716
 C           -0.96455447       -2.29958755        2.48781435
 C           -2.47105825       -0.43992604        2.34658018
 C           -1.43237595        1.61646416        2.99584827
 C           -0.41614465        2.51116805        2.47911441
 C           -2.21264401        0.90631560        2.09074715
 C           -0.38651807        2.77289869        1.11924304
 C            1.97946771        2.38030231        1.03444651
 C            0.84540977        3.02585358        0.53263321
 C            3.33865657        0.52868904        0.34462855
 C            2.90804524        1.83604324        0.14262640
 C            2.56143467       -1.61546835       -0.42792783
 C            3.18730868       -0.39234331       -0.69195524
 C            1.96103433       -2.32667146       -1.45734495
 C            0.28606812       -3.15070156        0.13727186
 C            0.75507108       -3.07966181       -1.17187521
 C           -1.70970204       -3.01684716        1.56620145
 C           -1.06120137       -3.44711781        0.33974648
 C           -3.32752838       -1.12975464        1.50100762
 C           -3.02928913       -2.52224539        1.22227764
 C           -3.73500862       -0.50879516        0.25361783
 C           -2.34464209        1.38834418        0.78592239
 C           -1.44921364        2.36039704        0.31006699
 C           -3.22158168        0.74253913       -0.08987290
 C           -1.45177371        2.72799586       -1.04265347
 C            0.85856738        3.52960744       -0.75741902
 C           -0.30741864        3.30899382       -1.59351258
 C            3.03752720        2.38599377       -1.12767591
 C            2.04052085        3.33608032       -1.57620039
 C            3.29211388        0.06326707       -2.00412098
 C            3.32710043        1.49662494       -2.23956137
 C            1.80640459       -1.71610098       -2.76719504
 C            2.45143769       -0.52179044       -3.03360312
 C           -0.18790027       -2.83511649       -2.25508998
 C            0.41502204       -1.86406405       -3.15273261
 C           -2.00460827       -3.26128223       -0.75554760
 C           -3.24285012       -2.75617844       -0.19318160
 C           -3.81950245       -1.55570563       -0.75840319
 C           -1.54780096       -2.75187209       -1.96945770
 C           -3.51019991       -1.23759405       -2.07037095
 C           -2.34383795       -1.85684086       -2.69342542
 C           -3.30313716        1.15748471       -1.41315189
 C           -2.33755182        2.10959461       -1.91998236
 C           -3.51626022        0.16091070       -2.44867899
 C           -0.32360547       -0.75063763       -3.54240199
 C           -1.70922956       -0.85477887       -3.54046385
 C           -1.81860662        1.59045840       -3.17844047
 C           -2.49957297        0.35127249       -3.46683520
 C            0.16574911        2.81131289       -2.87426563
 C            1.60594218        2.93847334       -2.90568347
 C            2.38574113        1.79235887       -3.30888325
 C            1.69209269        0.55995366       -3.63514032
 C           -0.45234481        1.68439623       -3.40529092
 C            0.29534409        0.50775169       -3.60735824
