   70
C70 / DATE: 7/ 1/2024 / Origin: Program Fullerene / C70 from database
 C            1.23372964       -0.05171414        4.94447022
 C            2.53016315       -0.41291671        4.41033659
 C            2.37396488       -1.69036615        3.72424737
 C            0.38476419       -1.22137052        4.81514589
 C            0.97038031       -2.04874520        3.77974139
 C           -0.96125190       -0.73805811        4.62344551
 C            0.50889108        1.05263042        4.33535798
 C           -0.88946449        0.70698124        4.42924923
 C            0.99329351        1.62355911        3.15853749
 C            3.16038026        0.50190226        3.48163971
 C            2.36036747        1.56352769        2.89553515
 C            3.00557733       -1.57110453        2.42601647
 C            3.67672126       -0.29018786        2.38022603
 C            2.30934529       -1.96136461        1.29223839
 C            0.27788814       -2.24672653        2.58325729
 C            0.99609130       -2.43529137        1.39986643
 C           -1.72855687       -1.25760695        3.51231764
 C           -1.10262377       -2.02145582        2.52177111
 C           -1.76289423        1.02647073        3.31890132
 C           -2.56861824       -0.15693442        3.09588604
 C            0.11286638        1.99333450        2.12837374
 C           -1.25562100        1.69718991        2.20724957
 C            0.63029314        2.49546281        0.93001733
 C            2.82000441        1.71397353        1.53303192
 C            3.53337880        0.50289351        1.16960884
 C            1.96104087        2.23985907        0.58873716
 C            2.73968234       -1.46656776        0.06547821
 C            3.15572644       -0.13456842       -0.01397876
 C            2.26582316       -2.09168612       -1.07243945
 C            0.31692757       -2.78804121        0.23250178
 C            1.05254861       -2.87776482       -0.95114374
 C           -1.76241243       -2.16215024        1.29759666
 C           -1.07416166       -2.65355066        0.18320007
 C           -3.21176577       -0.27658828        1.88292386
 C           -2.96495995       -1.47624522        1.10982586
 C           -2.02451192        1.69917625        1.03904125
 C           -3.10267861        0.81922907        0.93866958
 C           -0.24528102        2.85707158       -0.09634000
 C           -1.52078661        2.28448860       -0.12262931
 C            0.32193508        3.30459469       -1.28906630
 C            2.24589743        1.96113476       -0.73863354
 C            2.66596522        0.66631760       -1.05509787
 C            1.58859419        2.72101207       -1.68696491
 C            2.16579974       -1.32971084       -2.29934433
 C            2.22128900        0.05989255       -2.23687236
 C            0.38561012       -2.85018299       -2.24074079
 C            1.15294671       -1.97315532       -3.11519234
 C           -1.74571765       -2.75719762       -1.03863147
 C           -0.99822610       -2.83033718       -2.28416225
 C           -3.41993762       -1.18102726       -0.23367801
 C           -3.44755318        0.26928930       -0.35989873
 C           -2.91537038       -1.92923225       -1.28033089
 C           -2.14536050        2.01479696       -1.34935676
 C           -2.91016908        0.85694263       -1.49560007
 C           -0.50025926        3.40834577       -2.47761087
 C           -1.77219588        2.72383976       -2.48428463
 C            1.41808915        2.18972112       -3.02020808
 C            1.57326021        0.81936930       -3.21737282
 C            0.27914700        2.88936427       -3.59048896
 C            0.50650496       -1.22354395       -4.08592650
 C            0.86906949        0.17477374       -4.23946676
 C           -1.67805019       -1.99805714       -3.26589917
 C           -2.73878781       -1.28945377       -2.57074196
 C           -2.80665842        0.09957612       -2.66548702
 C           -0.93979684       -1.31875625       -4.22807093
 C           -1.91210622        2.08778081       -3.78201132
 C           -0.62600940        2.16989438       -4.46042311
 C           -0.26013373        0.83166184       -4.87705460
 C           -2.35319106        0.70603976       -3.83263728
 C           -1.41884602       -0.02043747       -4.67665718
