   70
C70 / DATE: 7/ 1/2024 / Origin: Program Fullerene / C70 from database
 C            1.23958463       -0.02637885        4.47507314
 C            2.52916120       -0.24920913        3.86970188
 C            2.56794942       -1.64013011        3.46020362
 C            0.42431943       -1.21529680        4.24294961
 C            1.19065712       -2.09957551        3.40619218
 C           -0.86264370       -0.75467018        3.76983347
 C            0.44811426        1.09402180        4.01863916
 C           -0.91766289        0.64046840        4.15154342
 C            0.80168546        1.77660572        2.84815649
 C            2.88494085        0.53508227        2.70733964
 C            1.93129435        1.37413626        2.12076124
 C            3.35937194       -1.71046144        2.24497387
 C            3.67952837       -0.34023085        1.86290678
 C            2.95054359       -2.60164634        1.26285444
 C            0.67805391       -2.50212415        2.17858038
 C            1.57611811       -3.08300495        1.29481454
 C           -1.30403623       -1.10863704        2.49100046
 C           -0.50965228       -1.93243612        1.67862355
 C           -2.31897138       -0.33243335        1.91664978
 C           -1.88863922        1.41496320        3.56751657
 C           -2.79310676        0.76203833        2.64718300
 C           -0.19551259        2.53146855        2.21796202
 C           -1.44340724        2.58708316        2.84763825
 C           -0.10194391        2.78517894        0.84066283
 C            1.99387785        1.61925357        0.74722449
 C            0.89081995        2.15813138        0.09041455
 C            3.80574146       -0.02107073        0.51974678
 C            3.05082928        1.10696145        0.00456523
 C            3.28344750       -2.33224648       -0.12494188
 C            3.74304151       -1.07647563       -0.48163434
 C            1.16731895       -3.33881854       -0.06053823
 C            2.26383992       -2.96379046       -0.93977886
 C           -0.88295182       -2.15445330        0.34341849
 C           -0.12505982       -3.02717993       -0.45215617
 C           -2.57029215       -0.41450429        0.53833997
 C           -1.91079949       -1.38715076       -0.23025624
 C           -3.42181627        0.51708975       -0.08654196
 C           -3.45883524        1.84792433        1.96405285
 C           -2.60826178        3.02638612        2.11292442
 C           -3.74686288        1.70281884        0.56301643
 C           -1.11766712        3.47215780        0.17834339
 C           -2.41832117        3.60019865        0.80286615
 C           -3.37092570        2.95130065       -0.07351444
 C           -1.35277437        3.19630456       -1.22842993
 C           -2.76588169        2.87317129       -1.38559465
 C            0.77467375        2.06662978       -1.30814161
 C           -0.41606071        2.44785585       -1.93646211
 C            2.87853571        0.89637565       -1.41638746
 C            3.25836882       -0.47787529       -1.70968378
 C            1.76773109        1.42665370       -2.06003791
 C            1.94104502       -2.45372835       -2.19407939
 C            2.46667101       -1.20945693       -2.59351918
 C           -0.38069443       -3.11320957       -1.81183496
 C            0.73092366       -2.89811386       -2.72614746
 C           -2.24918189       -1.55632011       -1.58116638
 C           -1.53811939       -2.45481860       -2.36503692
 C           -3.48601591        0.54791729       -1.47281186
 C           -3.08828575        1.77245781       -2.16021378
 C           -2.97035459       -0.56560706       -2.23380611
 C           -0.82948979        1.77329452       -3.08799862
 C           -2.15935162        1.37508498       -3.19370465
 C           -2.45408524       -0.01548192       -3.47760835
 C            1.44227786        0.89481886       -3.30535939
 C            1.83511208       -0.47606286       -3.59792339
 C            0.11702071        1.10676034       -3.85398046
 C            0.20763046       -2.31477422       -3.94048395
 C           -1.21516980       -2.09234065       -3.73881349
 C           -1.52745685       -0.75154620       -4.19802084
 C            0.79392840       -1.08146313       -4.40358022
 C           -0.27386598       -0.10787015       -4.55648408
