   70
C70 / DATE: 7/ 1/2024 / Origin: Program Fullerene / C70 from database
 C            1.74811289        0.07082313        4.70191123
 C            0.90827669       -1.11374667        4.69010848
 C            1.38512200       -1.98452646        3.63252513
 C            2.65008423       -0.01284800        3.56515724
 C            2.49852736       -1.31631085        2.96903609
 C            2.42309491        1.13456185        2.72177485
 C            0.88700149        1.22046942        4.49825608
 C            1.32454182        1.89811782        3.29117359
 C           -0.47551420       -0.68430578        4.66450571
 C           -0.48940740        0.77071472        4.57839077
 C           -1.38396727       -1.42612112        3.91968938
 C            0.46795584       -2.68824400        2.85118440
 C           -0.90314557       -2.48293556        3.03583670
 C            0.91317317       -3.19245901        1.63279824
 C            2.60804187       -1.44366750        1.58894656
 C            2.11245404       -2.61636147        1.04865915
 C            2.45394067        0.97016160        1.34218118
 C            2.66208557       -0.29474726        0.77702267
 C            1.83052874        1.93540339        0.57349913
 C            0.36932149        2.42271957        2.42464784
 C            0.71192297        2.59838836        1.08630977
 C           -1.43183955        1.40143123        3.77609206
 C           -0.98407480        2.34725645        2.76262610
 C           -2.48836884       -0.75655336        3.25151558
 C           -2.52332146        0.63243743        3.20147109
 C           -1.80444225       -2.54715736        1.89114926
 C           -2.82689991       -1.53191942        2.06810901
 C           -0.03358048       -3.39473807        0.54816550
 C           -1.28474587       -2.80709824        0.62466029
 C            2.00973079       -2.74065084       -0.38114739
 C            0.71124132       -3.31588196       -0.68660714
 C            2.58232689       -0.42754779       -0.62552817
 C            2.46318916       -1.70780632       -1.18696682
 C            2.03677598        1.93078259       -0.79613655
 C            2.33240813        0.71117399       -1.42076887
 C            1.43710220        2.95478960       -1.51558576
 C           -0.26481039        3.04388512        0.20163434
 C            0.13419249        3.40852073       -1.07361006
 C           -1.98455387        2.36419687        1.70293340
 C           -2.93650016        1.30110422        1.97712900
 C           -1.57240593        2.60606406        0.39470386
 C           -3.34460525       -0.89673909        0.95084285
 C           -3.43578873        0.55593601        0.92011381
 C           -1.82622638       -2.18266342       -0.50723946
 C           -2.92763134       -1.33896731       -0.36795698
 C            0.08482792       -2.88112760       -1.84245424
 C           -1.13283951       -2.19091845       -1.72917238
 C            2.16219110       -1.83258709       -2.53601209
 C            0.94357878       -2.55038492       -2.88248595
 C            2.23541799        0.59040297       -2.81911725
 C            2.23404329       -0.67549998       -3.39479642
 C            1.41018260        2.89688191       -2.95680798
 C            1.85286460        1.68388078       -3.60185330
 C           -0.77231007        3.14122135       -2.16584105
 C            0.03311011        3.13399340       -3.37120106
 C           -2.26537322        2.02634683       -0.67803791
 C           -3.15714520        0.98389918       -0.43925226
 C           -3.05992807       -0.20504104       -1.26070571
 C           -1.75338729        2.17285109       -1.97065328
 C           -1.51724121       -1.28339323       -2.73166312
 C           -2.25352844       -0.15321026       -2.38260496
 C           -1.85597684        1.09390871       -2.86306053
 C            0.40121323       -1.95193552       -4.07699253
 C            1.35686936       -0.95424609       -4.52243147
 C           -0.88442966       -1.30404705       -3.97264108
 C            0.95466826        1.48321962       -4.72834261
 C           -0.27975810        2.17699657       -4.40716615
 C           -1.27515395        1.16134153       -4.12861885
 C            0.59823990        0.13180450       -5.10338745
 C           -0.79945865       -0.06929851       -4.73791348
