   70
C70 / DATE: 7/ 1/2024 / Origin: Program Fullerene / C70 from database
 C            1.35983218        0.19959151        4.78851979
 C            0.59918301       -1.03294516        4.69505049
 C            1.50159788       -2.05755074        4.22915770
 C            2.59076308        0.00908624        4.03838240
 C            2.72991060       -1.40384181        3.78914863
 C            2.55872598        0.91024427        2.90437049
 C            0.59653489        1.23651187        4.11896543
 C            1.43855973        1.81214517        3.09446750
 C           -0.59413256       -0.75965369        3.91818079
 C           -0.66829585        0.67265506        3.69603746
 C           -0.95670439       -1.60048234        2.87000766
 C            1.07340119       -2.91393604        3.14127992
 C           -0.16476069       -2.71231915        2.52671954
 C            2.97836348       -1.84921388        2.43158987
 C            2.23495682       -3.08454072        2.29457675
 C            2.80910208        0.43913687        1.61226786
 C            2.95596726       -0.93736230        1.37002417
 C            2.46798345        1.27713389        0.55000855
 C            0.82433871        2.29611068        1.95219879
 C            1.57710283        2.33013662        0.79010945
 C           -1.20307251        1.11960043        2.49158174
 C           -0.55552319        2.15526845        1.81328320
 C           -1.89414597       -1.12311252        1.95680982
 C           -2.01916283        0.25716442        1.75849879
 C           -2.40244961       -2.00218957        1.01880769
 C           -0.39763860       -3.36976713        1.31211042
 C           -1.58851508       -3.13549168        0.62616593
 C            2.03173917       -3.57554112        1.02127382
 C            0.68160608       -3.95051153        0.64092180
 C            2.76631248       -1.43801234        0.07386236
 C            2.55292844       -2.80728623       -0.09288196
 C            2.63433368        0.81449322       -0.75272785
 C            2.51540696       -0.55688630       -0.98552658
 C            2.40554690        1.70277512       -1.80158409
 C            1.05536691        3.03292696       -0.28762946
 C            1.73951573        2.95039075       -1.49362606
 C           -1.13075112        2.63009760        0.63850674
 C           -0.31870339        3.29693916       -0.28302691
 C           -2.63810846        0.75422673        0.60596575
 C           -2.32362389        2.05743922        0.20041656
 C           -3.05251445       -1.48326529       -0.16390058
 C           -3.28064118       -0.12049913       -0.28341715
 C           -1.63013540       -3.22780386       -0.82947795
 C           -2.50262292       -2.17768782       -1.31441097
 C            0.67906720       -4.00891603       -0.81007930
 C            1.85105426       -3.27824872       -1.26768819
 C           -0.47072174       -3.50316743       -1.53298961
 C            1.83894886       -0.99704431       -2.13571368
 C            1.40929926       -2.30704895       -2.23897412
 C            0.00375550       -2.53484289       -2.51030649
 C            1.77101370        1.19510310       -3.00034754
 C            1.19797277       -0.06066313       -2.93112933
 C            1.11298493        3.41893287       -2.71423997
 C            1.03977401        2.27956665       -3.61655877
 C           -0.91487346        3.93839108       -1.36660612
 C           -0.21109034        3.99830417       -2.63358669
 C           -2.98656951        2.62801570       -0.88232211
 C           -2.30488729        3.64449175       -1.66767605
 C           -3.59206156        0.32898811       -1.56186047
 C           -3.65762771        1.75107257       -1.81320384
 C           -2.13073454       -1.41860749       -2.42152976
 C           -0.79397844       -1.43494330       -2.83564090
 C           -0.16870024       -0.23210193       -3.20288045
 C           -2.89750313       -0.28952901       -2.68253162
 C           -0.35392941        2.07224059       -3.94319642
 C           -1.03728967        3.31245764       -3.61104704
 C           -2.37900162        3.24896425       -3.06882993
 C           -3.07773359        1.98254411       -3.12455364
 C           -0.95122224        0.84840160       -3.63264972
 C           -2.33352345        0.78346515       -3.47491653
