   70
C70 / DATE: 7/ 1/2024 / Origin: Program Fullerene / C70 from database
 C            1.56327372        0.03930336        4.52547958
 C            0.75593669       -1.15897652        4.41844864
 C            1.32651381       -2.00528133        3.38180056
 C            2.64543520       -0.07733129        3.56868375
 C            2.49161036       -1.32550830        2.84633995
 C            2.66883242        1.14285844        2.79162887
 C            0.73575755        1.16177847        4.11331300
 C            1.41285668        1.83367984        3.02541194
 C           -0.62357779       -0.74042732        4.27231854
 C           -0.60164524        0.66257240        3.88360231
 C           -1.47805359       -1.59256848        3.59173433
 C            0.45885230       -2.65048193        2.50829996
 C           -0.89660220       -2.69220383        2.83837878
 C            0.84631332       -2.84759559        1.17982069
 C            2.69416016       -1.29997387        1.47121748
 C            1.89720201       -2.09288238        0.63855034
 C            3.10277921        1.06684136        1.47958170
 C            3.34514597       -0.19371610        0.92522965
 C            2.69959878        2.08189203        0.62464235
 C            0.68121631        2.24755599        1.91311431
 C            1.38931253        2.56248396        0.75169021
 C           -1.28118843        1.04784019        2.73137590
 C           -0.67811410        1.92397232        1.81057080
 C           -2.50826767       -1.01761390        2.74656984
 C           -2.40597779        0.31272818        2.35470818
 C           -1.86768896       -3.08293664        1.83428358
 C           -2.86171266       -2.01790956        1.75163891
 C           -0.00829318       -3.54129978        0.32042193
 C           -1.41456344       -3.67779694        0.67003266
 C            0.06687333       -3.28382772       -1.10672836
 C            1.99261823       -1.94029350       -0.75055962
 C            0.90469920       -2.27199265       -1.54757956
 C            3.73275353       -0.25881326       -0.40790885
 C            2.98516728       -1.13545639       -1.29113901
 C            3.37384564        2.19239583       -0.58181844
 C            3.96638223        0.98541594       -1.12239247
 C            2.76139451        2.91091284       -1.67507220
 C            0.68944038        3.01053814       -0.37112152
 C            1.38464124        3.33970050       -1.53336454
 C           -1.38103427        2.30236816        0.66304020
 C           -0.69898460        2.86115563       -0.42304118
 C           -3.15985718        0.73595848        1.27260392
 C           -2.69383435        1.86697084        0.49963050
 C           -3.33635606       -1.59669013        0.50869196
 C           -3.67563289       -0.25681719        0.33865436
 C           -2.19349024       -3.50325339       -0.53887717
 C           -1.26683214       -3.38187430       -1.65034975
 C           -3.12729092       -2.39270126       -0.61455957
 C           -1.73499617       -2.31411918       -2.50231555
 C           -2.95062163       -1.76995311       -1.91656354
 C            0.49363700       -1.38854852       -2.55951579
 C           -0.81793996       -1.42783767       -3.05393539
 C            2.68427421       -0.39809927       -2.50653137
 C            3.46933792        0.82081950       -2.47617823
 C            2.83523542        2.06156771       -2.85737337
 C            1.36611752       -0.37052387       -2.96876874
 C            0.75880550        3.10219396       -2.81796358
 C            1.50340472        2.00914431       -3.41863089
 C            0.86312005        0.78139032       -3.59527494
 C           -1.37003659        3.06435501       -1.63345832
 C           -0.62216755        3.05784437       -2.88071708
 C           -3.24855539        1.72793468       -0.83345378
 C           -3.65864637        0.33597193       -0.99089623
 C           -3.21454554       -0.41312520       -2.08389847
 C           -2.62815003        2.38008737       -1.88337335
 C           -1.34227244       -0.29472425       -3.65766471
 C           -0.47389806        0.82063824       -3.97272475
 C           -1.22251172        2.04360292       -3.72791631
 C           -2.60120446        0.23610498       -3.15335515
 C           -2.50200128        1.68257648       -3.14648790
