   70
C70 / DATE: 7/ 1/2024 / Origin: Program Fullerene / C70 from database
 C            1.29170053        0.01867582        4.39345614
 C            2.55095350       -0.14097929        3.68549423
 C            2.51484375       -1.43744301        3.02519713
 C            0.48098279       -1.15728170        4.11671128
 C            1.15108354       -1.93130038        3.10012282
 C           -0.86084089       -0.71356442        3.84592846
 C            0.47166067        1.19611427        4.14669280
 C           -0.87494670        0.73946850        3.86409487
 C            0.99205628        2.25076807        3.41311831
 C            3.10921242        0.95250786        3.03213995
 C            2.38951290        2.21622603        3.01312604
 C            3.72950261        0.77546134        1.72821446
 C            3.21821335       -1.62953778        1.84905938
 C            3.87264659       -0.49945034        1.20132799
 C            2.60004604       -2.41712782        0.79984517
 C            0.47021517       -2.24793461        1.92177691
 C            1.21188187       -2.57720199        0.78431172
 C           -1.59383626       -1.33823291        2.84942827
 C           -0.90837594       -2.00295206        1.81215276
 C           -2.80196629       -0.72603881        2.56050013
 C           -1.65182641        1.38882134        2.90550384
 C           -2.81123139        0.72845538        2.51222933
 C            0.21810816        2.79419183        2.30658748
 C           -1.02623438        2.24623491        1.99189658
 C            2.48218431        2.76191926        1.67102666
 C            3.26035871        1.84184832        0.86068698
 C            1.14200330        3.10181002        1.23022552
 C            2.80165448        1.53300208       -0.41743573
 C            3.72983697       -0.68833894       -0.23356815
 C            3.28059010       -2.05363956       -0.42580133
 C            3.16620179        0.32086332       -1.01526404
 C            2.67379518       -2.37687533       -1.62224850
 C            0.57002925       -2.77949873       -0.43859153
 C            1.35770751       -2.98378655       -1.57114396
 C           -1.54664116       -2.23113815        0.58076612
 C           -0.78337351       -2.44739445       -0.56929991
 C           -3.58857240       -1.21741356        1.45950876
 C           -2.91270203       -1.99158014        0.44638869
 C           -3.46864311        1.11057711        1.28097973
 C           -4.18038836       -0.06324137        0.80922030
 C           -1.47704062        2.29944603        0.66434970
 C           -2.77847844        1.88905283        0.35878296
 C            0.77379481        2.78319043       -0.06728641
 C            1.73011980        2.25880185       -0.93529067
 C           -0.57562227        2.61237490       -0.36349082
 C            1.39528725        2.09422567       -2.26881197
 C            2.64902511       -0.01290130       -2.27230363
 C            2.59720150       -1.35616360       -2.64940904
 C            1.90214953        0.93242760       -2.97523024
 C            0.78221726       -2.81261419       -2.88598547
 C            1.57827764       -1.80770037       -3.58013623
 C           -1.36911951       -2.27940818       -1.83762047
 C           -0.60171724       -2.41735120       -2.98953849
 C           -3.42848139       -1.55012116       -0.83565903
 C           -4.19146151       -0.32480652       -0.61245248
 C           -2.60699033       -1.64472592       -1.95318627
 C           -3.21012258        1.88447925       -0.96777349
 C           -3.98055579        0.74774594       -1.46402044
 C           -0.96001370        2.50856382       -1.70015085
 C            0.01609644        2.30021416       -2.67490928
 C           -2.29395409        2.28915417       -2.01638129
 C            0.88234436        0.51150835       -3.92884737
 C            0.66287729       -0.84112807       -4.15410174
 C           -0.67783805       -1.38321046       -4.00414397
 C           -0.25432835        1.40873042       -3.79290272
 C           -2.83897195       -0.79518692       -3.03748088
 C           -3.52414631        0.46050182       -2.80693221
 C           -2.62120593        1.52342421       -3.20702954
 C           -1.76491555       -0.52201405       -3.97752608
 C           -1.54183032        0.91849695       -3.96889728
