   70
C70 / DATE: 7/ 1/2024 / Origin: Program Fullerene / C70 from database
 C            1.20390064        0.05783278        4.71988217
 C            2.46447276       -0.07186394        4.02051205
 C            2.49503556       -1.38911160        3.41163332
 C            0.37711749       -1.08762444        4.36562311
 C            1.16798759       -1.96439645        3.52782192
 C           -0.87836205       -0.58860763        3.84295307
 C            0.41573608        1.25145325        4.50397166
 C           -0.92326225        0.83067210        4.12467521
 C            0.85469753        2.22989771        3.52111439
 C            2.80905011        0.89312099        2.99022305
 C            2.03180688        2.03574051        2.79168791
 C            3.06418719       -1.25776862        2.07868884
 C            3.28758442        0.15478551        1.82917976
 C            2.52883452       -2.02712096        1.05640913
 C            0.60103288       -2.49421707        2.37668405
 C            1.46706846       -2.87884993        1.36366574
 C           -1.31197211       -1.03687248        2.59841366
 C           -0.71089478       -2.15735104        2.02400312
 C           -2.08494307       -0.19729871        1.79668598
 C           -1.37943833        1.72042645        3.07797453
 C           -0.33908893        2.69929132        2.83297632
 C           -2.03198129        1.19134967        1.97744380
 C           -0.21678466        3.22249352        1.54897366
 C            2.18240388        2.72139139        1.59133793
 C            1.06299582        3.48448279        1.06852855
 C            3.04791560        0.67536220        0.55816652
 C            2.79601137        2.03660186        0.46223831
 C            2.65090857       -1.55988142       -0.25013197
 C            2.64458117       -0.18064383       -0.47670398
 C            2.32635211       -2.42866128       -1.28273958
 C            0.95218752       -3.68027868        0.36058244
 C            1.58683896       -3.62891298       -0.94095662
 C           -1.22535468       -2.66455294        0.82636555
 C           -0.48295739       -3.63514132        0.14847076
 C           -2.63940484       -0.70654853        0.62215749
 C           -2.21867841       -1.95220683        0.14357539
 C           -3.33002979        0.16445438       -0.22040583
 C           -2.20006933        2.01850651        0.87469764
 C           -1.25775563        3.02624089        0.63284751
 C           -3.04761525        1.58486247       -0.13473561
 C           -1.14476129        3.58591207       -0.64068282
 C            1.27508396        3.61859447       -0.36016981
 C            2.21641183        2.57592603       -0.74893798
 C            0.18042007        3.86081015       -1.17356999
 C            2.02221267        0.33776226       -1.62680001
 C            1.89286083        1.72056963       -1.79654375
 C            1.75976648       -1.89561660       -2.50661777
 C            1.51687157       -0.52974726       -2.60622392
 C            0.55931011       -3.83141725       -1.94277928
 C           -0.72494159       -3.89249730       -1.26066847
 C            0.75775003       -2.83894778       -2.98361888
 C           -2.65325266       -2.39670842       -1.10731596
 C           -1.82981063       -3.32028421       -1.87006387
 C           -3.50579820       -0.16407430       -1.62256381
 C           -3.23730555       -1.45305886       -2.04798248
 C           -2.89981202        2.09707618       -1.48507643
 C           -1.97215963        3.09568026       -1.73219177
 C           -3.01714581        0.96847835       -2.40203406
 C            0.21910202        3.34916132       -2.52892394
 C            1.07683391        2.21053899       -2.81070350
 C           -1.13571762        2.99204094       -2.90986966
 C            0.57188167       -0.07439604       -3.53048636
 C           -2.06969749        0.77339289       -3.41507535
 C            0.31342559        1.28532673       -3.62097954
 C           -1.07391639        1.72591757       -3.61367693
 C           -0.35547755       -2.35493903       -3.65382792
 C           -1.67737095       -2.76834708       -3.20631860
 C           -2.56967875       -1.62875963       -3.32100500
 C           -0.42385785       -0.94124337       -3.97456101
 C           -1.81134106       -0.51820631       -3.86522209
