   70
C70 / DATE: 7/ 1/2024 / Origin: Program Fullerene / C70 from database
 C            1.38756146       -0.12020814        3.96674774
 C            2.47220382       -0.20609138        3.00523763
 C            2.36288386       -1.49014452        2.32917830
 C            0.52046369       -1.27000607        3.76178597
 C            1.08092305       -2.06349622        2.69075966
 C           -0.83680173       -0.78827152        3.62355528
 C            0.55637886        1.06665518        3.98820391
 C           -0.83080996        0.63329555        3.92395765
 C            0.96399304        2.18593170        3.27395605
 C            2.84128562        0.91713753        2.26790048
 C            2.16277204        2.12300594        2.44629000
 C            3.58901421        0.72789941        1.11076255
 C            2.79851707       -1.59501279        1.01077686
 C            3.63874522       -0.59820431        0.51619239
 C            2.09213554       -2.41002821        0.11820205
 C            0.25462440       -2.51017685        1.67277889
 C            0.84745547       -2.93154404        0.49021990
 C           -1.62316316       -1.25303913        2.57235908
 C           -1.11599881       -2.21944099        1.69089889
 C           -2.76757638       -0.53404446        2.22888865
 C           -1.77945677        1.44497586        3.31743991
 C           -2.83842453        0.82489440        2.53820329
 C           -0.01988936        2.99997762        2.57604240
 C           -1.36053318        2.64454908        2.60472454
 C            1.96211873        3.01238596        1.31167717
 C            0.57058330        3.43443817        1.32071044
 C            3.50577145        1.69638024        0.02738825
 C            2.56963496        2.72866683        0.09335552
 C            3.82131084       -0.43860371       -0.91714833
 C            3.73740049        0.98181102       -1.22233402
 C            2.49359616       -2.46885523       -1.21492719
 C            3.25540170       -1.36780401       -1.77784899
 C            1.55016002       -2.89568233       -2.23067214
 C            0.07017015       -3.62334772       -0.42916159
 C            0.41114856       -3.58098427       -1.84249985
 C           -1.93720958       -2.74081693        0.68392592
 C           -1.37597550       -3.54571706       -0.30895437
 C           -3.61731434       -1.03517943        1.25126601
 C           -3.19462870       -2.17679879        0.46053252
 C           -4.27316822       -0.09711858        0.35618279
 C           -3.22168499        1.76945302        1.50123407
 C           -2.12881360        2.71470124        1.37411931
 C           -3.82354865        1.28175898        0.35337049
 C           -0.16548633        3.36915873        0.13825755
 C           -1.45987284        2.83612963        0.15771907
 C            1.96069175        3.19291075       -1.07076720
 C            0.52599134        3.43664390       -1.06849924
 C            3.11111362        1.40446069       -2.38774818
 C            2.30684999        2.60945368       -2.35453865
 C            2.56006123       -0.91900968       -2.97681786
 C            1.40935678       -1.78778617       -3.16186922
 C            2.42193758        0.43879413       -3.22961721
 C            0.14688751       -1.23175153       -3.37257170
 C           -0.81453852       -3.33093189       -2.57640672
 C           -1.92149203       -3.48115582       -1.65249312
 C           -0.96639360       -2.05327820       -3.25155228
 C           -3.66152335       -1.96761998       -0.90706246
 C           -4.14527874       -0.60657427       -0.99497637
 C           -2.88557657       -2.44376021       -1.95001491
 C           -2.23020760       -1.47840340       -2.82787164
 C           -3.18186045        1.52671474       -0.92873319
 C           -1.95890797        2.18264384       -0.97521669
 C           -3.36715569        0.34984353       -1.76089461
 C           -2.30194415       -0.11549219       -2.53384003
 C           -0.02915401        2.77213701       -2.23174507
 C            1.06833587        2.34052268       -3.06843682
 C            1.09625899        0.96309832       -3.51034245
 C           -0.01256251        0.15090249       -3.28619510
 C           -1.11413240        1.93098081       -2.04780755
 C           -1.16265417        0.68406735       -2.68523639
