   70
C70 / DATE: 7/ 1/2024 / Origin: Program Fullerene / C70 from database
 C            1.23436872        0.24353865        4.72277248
 C            2.49186494        0.02870920        4.03970373
 C            2.53427982       -1.36643308        3.64151140
 C            0.41842538       -0.94837274        4.53024630
 C            1.18235919       -1.88806320        3.73759374
 C           -0.87370014       -0.52402112        4.04132536
 C            0.43405769        1.38996910        4.34734904
 C           -0.92242488        0.92198404        4.12342486
 C            0.81322855        2.17069780        3.18229666
 C            2.80566511        0.82147825        2.86255955
 C            1.92918753        1.81626669        2.41838853
 C            3.20701905       -1.43873778        2.35779888
 C            3.39887616       -0.07609053        1.88540028
 C            2.77760910       -2.39428512        1.45334540
 C            0.60833911       -2.45955836        2.60320926
 C            1.46167408       -2.99144485        1.64106641
 C           -1.40240062       -1.11916902        2.90572375
 C           -0.70805165       -2.14195696        2.24464302
 C           -2.37659838       -0.41707691        2.20588830
 C           -1.46098974        1.65131077        2.98480222
 C           -0.41704001        2.53271383        2.49847264
 C           -2.22207081        0.96018291        2.04776322
 C           -0.35705805        2.79601442        1.13891922
 C            1.96236859        2.18915236        1.07205620
 C            0.89437687        2.92787537        0.55357842
 C            3.22695823        0.21895828        0.53707083
 C            2.81245500        1.50083100        0.19978702
 C            2.91864269       -2.12361430        0.03729435
 C            3.08310202       -0.81083170       -0.40103685
 C            0.94372522       -3.32993395        0.32748974
 C            1.96854001       -2.98016385       -0.64245778
 C           -1.24729831       -2.65178863        1.05672030
 C           -0.39107745       -3.07535325        0.03077608
 C           -3.12833630       -1.11512539        1.27837001
 C           -2.57672865       -2.35520894        0.76582665
 C           -3.69713995       -0.39476957        0.15623151
 C           -2.37017846        1.51063010        0.77319468
 C           -1.44450931        2.46533603        0.32803408
 C           -3.22781326        0.88416308       -0.13406362
 C           -1.42409905        2.85464986       -1.01448429
 C            0.95986164        3.40566699       -0.74658185
 C           -0.24619899        3.37621777       -1.55777802
 C            2.87815533        1.87806820       -1.13237161
 C            2.06677013        2.98962373       -1.58162657
 C            2.77178365       -0.49357190       -1.72927599
 C            2.81110442        0.83624616       -2.14074531
 C            1.58352014       -2.64689836       -1.92791948
 C            2.08774838       -1.41781102       -2.51871184
 C           -0.77826460       -2.97508770       -1.31336118
 C            0.18444015       -2.76391602       -2.29488081
 C           -3.06627786       -2.52467942       -0.58606356
 C           -3.85604128       -1.35139137       -0.92208407
 C           -2.10407812       -2.72917837       -1.64393441
 C           -3.50349718       -0.93972383       -2.26541665
 C           -2.40147249       -1.78432459       -2.71253361
 C           -3.32070848        1.36023842       -1.43952599
 C           -2.43000398        2.42007532       -1.87157397
 C           -3.46543304        0.41696178       -2.54439318
 C           -2.10938348        2.18140268       -3.26775439
 C           -2.61090481        0.86713082       -3.62167216
 C            0.14152157        3.02440723       -2.91880475
 C            1.54254955        2.66109433       -2.89472936
 C            1.90797245        1.28857339       -3.19085638
 C           -0.72189995        2.25251866       -3.67842840
 C            1.09522930       -0.94945862       -3.47538843
 C           -0.08128316       -1.79762500       -3.34810090
 C           -1.35050104       -1.23533010       -3.45484664
 C           -1.47690560        0.04262191       -3.99744070
 C            0.94093548        0.41649856       -3.68824994
 C           -0.30834613        0.90918786       -4.07354146
