   70
C70 / DATE: 7/ 1/2024 / Origin: Program Fullerene / C70 from database
 C            1.37440786       -0.26930987        4.70587998
 C            2.62902086       -0.44964354        4.00194080
 C            2.60979559       -1.76501858        3.38043643
 C            0.55174508       -1.44404102        4.46018858
 C            1.31780911       -2.37020012        3.64429533
 C           -0.74124592       -0.98598344        3.97732791
 C            0.56625447        0.90300735        4.41766465
 C           -0.79722267        0.44703273        4.19596835
 C            1.08724472        1.92118948        3.62319299
 C            3.01540429        0.51632322        2.98848921
 C            2.31300387        1.70748013        2.86457506
 C            3.04857976       -1.61785287        2.00151767
 C            3.37220339       -0.21937715        1.78998197
 C            2.38376114       -2.30914537        0.98688047
 C            0.67415803       -3.03051842        2.60855448
 C            1.34942619       -3.17570850        1.32786942
 C           -1.25874880       -1.52548304        2.79891941
 C           -0.71421526       -2.70647327        2.31566368
 C           -2.06473199       -0.73901590        1.96588309
 C           -1.65011239        1.20108638        3.40767777
 C           -2.45136052        0.51932198        2.40578861
 C            0.19044441        2.71451621        2.79859091
 C           -1.16863701        2.43593779        2.80603679
 C            2.12464924        2.28322329        1.54382293
 C            0.85051088        2.97484363        1.52660084
 C            3.11380116        0.31978201        0.53877802
 C            2.50738230        1.57466800        0.41399189
 C            2.44841697       -1.81377310       -0.32040386
 C            3.03317358       -0.55851412       -0.53176407
 C            1.66578397       -2.40210564       -1.32716205
 C            0.31782924       -3.45911826        0.35159844
 C           -0.95898572       -3.08674019        0.94422823
 C            0.53150067       -3.14328566       -0.98244600
 C           -2.27516874       -1.09733206        0.62337384
 C           -1.85377155       -2.35648555        0.17300411
 C           -2.85309295       -0.17529064       -0.27821554
 C           -2.83623244        1.51448854        1.43655620
 C           -1.92709474        2.63884800        1.58851924
 C           -3.15720262        1.13074349        0.14517993
 C            0.09785680        2.98484453        0.35101175
 C           -1.29092035        3.11761864        0.44680947
 C            1.94810603        1.93011592       -0.81333753
 C            0.67451607        2.51235641       -0.84084831
 C            3.03941664       -0.00537381       -1.80093408
 C            2.44607669        1.30984515       -1.95295713
 C            1.84064307       -2.00166438       -2.65182820
 C            2.63137873       -0.82015131       -2.92172395
 C            0.69928765       -1.97834527       -3.55449495
 C           -0.59941084       -3.06958398       -1.79036650
 C           -1.84683197       -2.62809776       -1.18645060
 C           -0.51308200       -2.49555240       -3.11969824
 C           -2.98837137       -0.51053330       -1.63898379
 C           -2.48889030       -1.71998716       -2.10498872
 C           -1.74521340       -1.76053443       -3.35823351
 C           -3.31208316        0.46722734       -2.58091765
 C           -3.13949566        2.15732228       -0.78900055
 C           -2.04352435        3.10932900       -0.71822006
 C           -3.36438541        1.85143443       -2.17742112
 C           -0.06898985        2.53336461       -2.02942834
 C           -1.36473087        3.04208045       -1.99333677
 C           -2.35483199        2.56787949       -2.94184528
 C            1.66464500        1.30744284       -3.17181935
 C            1.88272232        0.02817222       -3.83076108
 C            0.72953663       -0.72213631       -4.29313910
 C            0.38444002        1.84568900       -3.16557739
 C           -1.72747888       -0.63557266       -4.17064075
 C           -2.65431663        0.44411512       -3.87635895
 C           -1.92813082        1.69835048       -4.01223722
 C           -0.45210737       -0.02746160       -4.51921692
 C           -0.52431392        1.36573056       -4.11204088
