   70
C70 / DATE: 7/ 1/2024 / Origin: Program Fullerene / C70 from database
 C            1.36946656        0.10184473        4.88834274
 C            0.57027234       -1.10488037        4.73448014
 C            1.42174427       -2.11922678        4.16552403
 C            2.59759689       -0.08881911        4.14066654
 C            2.69833627       -1.49742460        3.83761285
 C            2.60255984        0.85553460        3.03585965
 C            0.64249814        1.19059190        4.26391720
 C            1.43647337        1.71213041        3.17158713
 C           -0.64271383       -0.74455832        4.02596508
 C           -0.67804839        0.70435004        3.94538052
 C           -1.06499283       -1.47994423        2.90857363
 C            0.96343215       -2.81938521        2.98248455
 C           -0.29997226       -2.56714209        2.45071546
 C            3.02534325       -1.87734000        2.48020976
 C            2.09240406       -2.91297659        2.07418150
 C            2.95863595        0.42535093        1.75984281
 C            3.36127694       -0.90227693        1.54842286
 C            2.54791097        1.19517015        0.67011218
 C            0.76915482        2.11208343        2.01587885
 C            1.43338751        2.03348229        0.79807575
 C           -1.31888015        1.24350030        2.84873169
 C           -0.62707734        2.12263052        2.00750897
 C           -2.01826634       -0.88293440        2.06421107
 C           -2.30789701        0.46911515        2.27433238
 C           -2.35563715       -1.47728058        0.83831199
 C           -0.56461651       -3.10932801        1.20086805
 C           -1.66284223       -2.59861349        0.40865410
 C            1.84919800       -3.08618340        0.71227662
 C            0.54926210       -3.38304075        0.30157136
 C            3.51696595       -1.34437766        0.24273067
 C            2.73065648       -2.49248291       -0.19184387
 C            3.05449259        0.90568256       -0.59437624
 C            3.51873735       -0.38217956       -0.84059030
 C            2.67520418        1.69766960       -1.67270810
 C            0.79896477        2.51961055       -0.34227137
 C            1.50758305        2.55144864       -1.53463129
 C           -1.29756307        2.56878168        0.86247237
 C           -0.59285543        2.66384663       -0.35091870
 C           -3.16949001        1.12645657        1.41961226
 C           -2.67388200        2.35681079        0.83592310
 C           -3.10342037       -0.75784179       -0.09925894
 C           -3.76413714        0.38470224        0.33817455
 C           -2.84217446       -0.93776222       -1.46732634
 C           -1.28499172       -2.68986884       -0.98912298
 C            0.11680207       -3.05814820       -1.05009995
 C           -1.76420633       -1.72965843       -1.86546319
 C            2.30980688       -2.23792055       -1.56087677
 C            3.06732091       -1.08975933       -2.02783245
 C            0.96532121       -2.35842156       -1.90022203
 C            2.63079357        1.09517897       -2.99319368
 C            2.57502657       -0.35190184       -3.08987960
 C            0.78817547        2.54288174       -2.79382178
 C            1.47835677        1.63042359       -3.69167455
 C           -1.28070074        2.74618762       -1.57825681
 C           -0.60039079        2.52484422       -2.78291424
 C           -3.41258660        2.57385010       -0.38500750
 C           -4.21634269        1.37921027       -0.61445408
 C           -2.67404410        2.83054766       -1.59771167
 C           -3.49210231       -0.15906174       -2.42319257
 C           -4.14116245        1.07218348       -2.02250959
 C           -3.40831287        2.15723659       -2.65194618
 C           -1.24272329        1.85477009       -3.82728252
 C           -2.80083722        0.13249961       -3.66358329
 C           -2.66156204        1.58192679       -3.74658732
 C           -0.96282371       -1.32548232       -2.93669527
 C            0.42126773       -1.52095955       -2.87799780
 C            1.26666883       -0.69232064       -3.62040051
 C            0.73447994        0.51009944       -4.24092173
 C           -1.48003592       -0.43814304       -3.87776583
 C           -0.63828848        0.64501114       -4.34987335
