   70
C70 / DATE: 7/ 1/2024 / Origin: Program Fullerene / C70 from database
 C            1.48447011       -0.13373252        4.32130385
 C            2.62898308       -0.34268581        3.44654950
 C            2.35773689       -1.54551995        2.67995648
 C            0.63387004       -1.30186184        4.21810512
 C            1.33640062       -2.27933448        3.40837831
 C           -0.68062414       -0.86635115        3.77145045
 C            0.64997479        1.03553210        4.10948333
 C           -0.60960206        0.56632456        3.55191659
 C            1.24053242        2.16251554        3.56263363
 C            3.16178594        0.75713658        2.79508700
 C            2.62416246        2.06601326        3.12101754
 C            3.31514473        0.70610955        1.34890792
 C            2.28606061       -1.47662446        1.28513149
 C            2.70597334       -0.31557447        0.62846412
 C            1.54592525       -2.44168220        0.59272316
 C            0.56468056       -3.18181731        2.70314171
 C            0.91640844       -3.44718364        1.32379492
 C           -1.34553333       -1.66622254        2.84789025
 C           -0.87051423       -2.96557075        2.68363759
 C           -2.04953695       -1.06346222        1.79592482
 C           -1.06421401        1.08774125        2.34551238
 C           -1.85794143        0.29930068        1.51456229
 C            0.52315099        2.90040745        2.53845594
 C           -0.54498816        2.29547616        1.86869004
 C            2.76983519        2.90261702        1.94730626
 C            3.23198988        2.06625783        0.85004515
 C            1.52362304        3.62439480        1.77221293
 C            2.69130831        2.29913763       -0.41022987
 C            2.31366271       -0.08483237       -0.68871043
 C            2.36201410        1.21044021       -1.22990417
 C            1.18580399       -2.21132854       -0.74151789
 C            1.75395463       -1.13125933       -1.41724545
 C            0.15741076       -2.94889461       -1.35355027
 C           -0.23302281       -4.12013399        0.76158067
 C           -1.37703549       -3.77072917        1.59673373
 C           -0.60572732       -3.83549808       -0.60467882
 C           -2.75375323       -1.86876364        0.88938354
 C           -2.37730175       -3.20144812        0.72240604
 C           -2.04509393       -3.67193539       -0.60968391
 C           -3.47641313       -1.26956716       -0.13813332
 C           -2.35167419        0.85028749        0.33484418
 C           -3.27258639        0.13915271       -0.42001152
 C           -0.89237315        2.74903236        0.59112608
 C           -1.71772526        1.96118518       -0.22192126
 C            1.19652785        4.01008128        0.48705382
 C            2.02369076        3.50789966       -0.59486139
 C           -0.16427509        3.80085304        0.03855312
 C            1.26241811        3.71680736       -1.80442311
 C           -0.11840826        3.95480280       -1.39821498
 C            1.85577081        1.44643209       -2.51609475
 C            1.23375124        2.66362562       -2.79389896
 C            1.50994550       -0.96810079       -2.77276666
 C            1.55577759        0.36627780       -3.34094092
 C           -0.37408821       -2.50599394       -2.56405115
 C            0.39595500       -1.68025174       -3.37244615
 C           -2.62396932       -3.02994951       -1.69048091
 C           -3.57056149       -1.96431408       -1.41303925
 C           -1.75899777       -2.56073616       -2.76358060
 C           -3.28471791        0.32165610       -1.86026041
 C           -3.45532919       -0.98131764       -2.47430595
 C           -2.44171110       -1.44469028       -3.40297852
 C           -1.79266428        2.17979451       -1.60857320
 C           -0.95116162        3.10325599       -2.21550754
 C           -0.12105091        2.65317628       -3.31409155
 C           -2.37879846        1.21132396       -2.42250039
 C            0.43709622        0.49063302       -4.26290364
 C           -0.27552754       -0.77332413       -4.28376406
 C           -1.68294534       -0.49515840       -4.06839863
 C           -0.53486842        1.54433122       -4.03143278
 C           -1.78106012        0.89583734       -3.64886150
