   70
C70 / DATE: 7/ 1/2024 / Origin: Program Fullerene / C70 from database
 C            1.36749619       -0.07752520        4.17416207
 C            2.44350810       -0.21384600        3.20794926
 C            2.37326746       -1.55968763        2.66025852
 C            0.49249349       -1.23052702        4.02797674
 C            1.09774560       -2.12901946        3.06837250
 C           -0.83920095       -0.73851381        3.75660234
 C            0.53821629        1.11184586        4.14640111
 C           -0.84874067        0.67414098        4.09137521
 C            0.94581565        2.19733034        3.38227922
 C            2.76108502        0.84712487        2.36481996
 C            2.08248307        2.06280466        2.48117013
 C            3.46016659        0.57702244        1.19305253
 C            2.83558739       -1.80034458        1.36648456
 C            3.52328375       -0.79042910        0.69535361
 C            2.25602560       -2.83526563        0.63250261
 C            0.30329692       -2.73118047        2.10067589
 C            0.96546068       -3.35829493        1.05181565
 C           -1.49057624       -1.17138373        2.60452925
 C           -1.01899237       -2.29842118        1.92326896
 C           -2.47028156       -0.36017617        2.02166654
 C           -1.80169680        1.48687384        3.49635273
 C           -2.75796896        0.87922344        2.58842390
 C           -0.05006187        3.02738858        2.72323452
 C           -1.39930042        2.75722828        2.90914208
 C            1.79533280        2.84069180        1.28407222
 C            0.43899483        3.34082562        1.38660111
 C            3.28836569        1.45278982        0.04679133
 C            2.25757021        2.38740447        0.05868289
 C            3.49078699       -0.73348194       -0.76032972
 C            3.53468828        0.66594249       -1.14906816
 C            2.25558573       -2.78188792       -0.82132803
 C            2.68487433       -1.62456034       -1.46393689
 C            0.23624607       -3.76957310       -0.13308138
 C            1.06979112       -3.47821946       -1.28977303
 C           -1.78056205       -2.81560054        0.87936641
 C           -1.13264401       -3.55494555       -0.19175829
 C           -2.99990167       -0.69239088        0.76890978
 C           -2.81699464       -1.98686307        0.28886710
 C           -3.47032014        0.31243457       -0.09110754
 C           -3.25408810        1.93272348        1.73483410
 C           -2.32074556        3.04456125        1.82568399
 C           -3.44675772        1.63708186        0.33286725
 C           -0.41377997        3.23888208        0.28873553
 C           -1.78909414        3.27837786        0.49334145
 C           -2.65866253        2.58789700       -0.43622647
 C            1.46079694        2.54221668       -1.07566543
 C            0.08433144        2.77861293       -0.93443675
 C            2.93569225        1.05181792       -2.33564295
 C            1.98154262        2.14608408       -2.30334632
 C            2.10411680       -1.23497103       -2.67651814
 C            2.37507656        0.02936117       -3.19794041
 C            0.48460962       -3.08709069       -2.48393895
 C            1.07558145       -1.99444223       -3.23662365
 C           -1.75082650       -3.16395322       -1.44791138
 C           -2.83187462       -2.24079235       -1.14225612
 C           -0.96233275       -2.96329654       -2.57679177
 C           -3.43968869        0.10720640       -1.46742902
 C           -3.11859055       -1.19914362       -2.01089574
 C           -2.14856760        2.17398282       -1.65925052
 C           -0.81106493        2.43590161       -1.96136446
 C           -2.78814262        1.11020148       -2.29243318
 C            1.09542826        1.97993321       -3.43449220
 C            1.38212798        0.68394519       -4.03232514
 C           -0.33081805        2.05967929       -3.21255231
 C            0.00528540       -1.33613714       -3.97225675
 C           -1.25872948       -1.86604438       -3.48482270
 C           -2.31038178       -1.00057159       -3.20589079
 C           -2.14442708        0.43217218       -3.40464764
 C            0.11770664        0.01493093       -4.27729331
 C           -0.94464880        0.93193905       -3.89328789
