   70
C70 / DATE: 7/ 1/2024 / Origin: Program Fullerene / C70 from database
 C            1.30527905       -0.11164030        4.32062985
 C            2.59065556       -0.33675379        3.68841634
 C            2.54370574       -1.63678796        3.04096648
 C            0.46749800       -1.26883553        4.04880943
 C            1.19223799       -2.14969422        3.15983563
 C           -0.82963877       -0.78987149        3.62551233
 C            0.54723549        1.07726764        3.97190569
 C           -0.79857014        0.65994693        3.62192480
 C            1.15146863        2.08514431        3.23579838
 C            3.07530749        0.62658108        2.71588911
 C            2.44351736        1.85523439        2.59498890
 C            3.10687628       -1.49571606        1.71074025
 C            3.44339806       -0.09799254        1.51148490
 C            2.50942003       -2.17537446        0.65713032
 C            0.56295889       -2.60715092        2.00808051
 C            1.35000559       -2.91771326        0.90345516
 C           -1.47775245       -1.42085936        2.57266042
 C           -0.81429893       -2.41280137        1.83358138
 C           -2.54969672       -0.75455529        1.99244247
 C           -1.50044082        1.32159058        2.61622493
 C           -2.55924160        0.64855378        2.00880676
 C            0.34232554        2.86673256        2.31832803
 C           -0.93980590        2.43680488        1.97515622
 C            2.40469096        2.49896591        1.29536815
 C            1.23000792        3.34971482        1.27738108
 C            3.20734102        0.46299242        0.25734784
 C            2.73941910        1.77947523        0.14858968
 C            2.76820226       -1.73153315       -0.63907221
 C            3.11263228       -0.39107920       -0.84219081
 C            2.34106015       -2.50996427       -1.70958549
 C            0.76934199       -3.63083317       -0.13300433
 C            1.34626917       -3.53533461       -1.46199925
 C           -1.44907840       -2.98154527        0.71606156
 C           -0.67515808       -3.59866605       -0.26992834
 C           -3.34020765       -1.46490815        1.10110676
 C           -2.72345658       -2.53921966        0.35117108
 C           -4.24590848       -0.76924096        0.20915847
 C           -3.37369696        1.36614739        1.14221036
 C           -4.26250022        0.67465978        0.22950610
 C           -1.53880057        2.95092799        0.81685961
 C           -2.79081888        2.47970042        0.42455158
 C            0.68893028        3.70286772        0.05461517
 C           -0.74555941        3.57591792       -0.14697156
 C            2.33545484        2.26918549       -1.09720789
 C            1.34327317        3.25070412       -1.16271571
 C            3.04926030        0.16241802       -2.11708561
 C            2.65351881        1.55188484       -2.24741847
 C            1.99038543       -1.87183368       -2.96388329
 C            2.43794068       -0.58493070       -3.20659699
 C            0.26072356       -3.33237487       -2.40830577
 C           -0.97442746       -3.31139387       -1.66441845
 C            0.59211789       -2.18336838       -3.21938937
 C           -2.98996106       -2.28164861       -1.05692350
 C           -3.92763063       -1.18701116       -1.14659570
 C           -1.92134003       -2.33703879       -1.93943034
 C           -3.95294288        1.13642019       -1.11406539
 C           -3.03712641        2.25222526       -0.99300783
 C           -3.52888158       -0.01233671       -1.88620984
 C           -0.96764313        3.25924697       -1.54896570
 C            0.32612466        3.18389973       -2.20234090
 C           -1.96346256        2.34438832       -1.87025587
 C            1.78564982        1.65723203       -3.40838797
 C            1.55496159        0.31915929       -3.91841240
 C            0.49653851        2.30180721       -3.25633429
 C           -0.32783936       -1.14205709       -3.34872766
 C           -1.53178855       -1.17036112       -2.62514633
 C           -2.26849593        0.01591776       -2.47353366
 C           -1.65072651        1.25009217       -2.68741343
 C            0.12391931        0.06424368       -3.88183260
 C           -0.53275674        1.30437518       -3.50933876
