   70
C70 / DATE: 7/ 1/2024 / Origin: Program Fullerene / C70 from database
 C            1.41075130        0.15195753        5.10557568
 C            0.63354489       -1.04031261        4.82150637
 C            1.53723215       -1.99824098        4.23392195
 C            2.62184626        0.07866488        4.30356782
 C            2.76034605       -1.28800781        3.87001754
 C            2.54146203        1.11938614        3.29681269
 C            0.65151856        1.29150736        4.63069902
 C            1.51499200        2.04538365        3.74528001
 C           -0.53512531       -0.64078863        4.06015618
 C           -0.60821689        0.80936265        4.08950463
 C           -0.84937839       -1.29595428        2.87189165
 C            1.10890671       -2.71336217        3.04862895
 C           -0.11922299       -2.41594404        2.45016922
 C            2.98753685       -1.55030543        2.46346011
 C            2.27798493       -2.78229726        2.19875062
 C            2.61634243        0.79609565        1.93465239
 C            2.89175452       -0.51788203        1.52358647
 C            2.15950918        1.73353337        1.00225936
 C            0.89909751        2.82895544        2.78982926
 C            1.46508371        2.84949029        1.45762829
 C           -1.13325164        1.47352481        2.98358803
 C           -0.53400502        2.66732036        2.59657851
 C           -1.67723213       -0.64861243        1.96137894
 C           -1.82471124        0.74324816        2.01601466
 C           -2.15009586       -1.35268558        0.85993753
 C           -0.34210548       -2.91639904        1.16230139
 C           -1.45456310       -2.48510834        0.43097276
 C            2.07954355       -3.13428864        0.88225208
 C            0.73490131       -3.48811938        0.48008422
 C            2.71405519       -0.87350625        0.18194958
 C            2.54941327       -2.22084065       -0.14115578
 C            2.05582535        1.39187462       -0.34660206
 C            2.34921397        0.09018563       -0.75754216
 C            1.43718497        2.28014363       -1.23824270
 C            0.44270638        3.42335198        0.61055959
 C           -0.83045447        3.20157874        1.28272246
 C            0.49870039        3.19689285       -0.75576115
 C           -2.39304245        1.41688461        0.92949927
 C           -1.87265725        2.65818656        0.54007668
 C           -3.09680464       -0.74844792        0.03826510
 C           -3.20963689        0.69830496        0.05861889
 C           -3.26828810       -1.19604486       -1.33263878
 C           -1.62479205       -2.95494256       -0.87374651
 C           -2.52185127       -2.26959185       -1.79133055
 C            0.75016021       -3.46764522       -0.96785820
 C            1.83644507       -2.57883415       -1.35633214
 C           -0.45645748       -3.36529068       -1.63322276
 C            2.05683794       -0.30285995       -2.06573860
 C            1.59115387       -1.59759823       -2.30713656
 C            1.47086137        2.00172597       -2.60318871
 C            1.87498572        0.67685478       -3.03243615
 C            0.35689641        2.41530651       -3.44393695
 C           -0.68582846        3.37910188       -1.46146566
 C           -1.93288879        3.03940702       -0.79783428
 C           -0.77368970        2.95103796       -2.84254599
 C           -3.39834561        1.15089844       -1.31015329
 C           -3.44237767       -0.02067998       -2.17185160
 C           -2.75233557        2.30000460       -1.73776331
 C           -2.07603620        2.31878510       -3.02667292
 C           -2.86525350        0.02363875       -3.43833408
 C           -2.21564186        1.24260608       -3.89686330
 C           -1.85817693       -2.19258603       -3.08525699
 C           -0.49275710       -2.64901033       -2.89340585
 C            0.56380815       -1.80493168       -3.23180414
 C           -2.08784973       -1.10769938       -3.92215818
 C            1.13079449        0.34842215       -4.23481333
 C            0.20635879        1.43724024       -4.50477643
 C           -1.10391107        0.86283133       -4.75182221
 C            0.38195365       -0.89221969       -4.26442529
 C           -0.97272430       -0.58265662       -4.69388130
