   70
C70 / DATE: 7/ 1/2024 / Origin: Program Fullerene / C70 from database
 C            1.21133810       -0.03225013        4.24207523
 C            2.52666600       -0.39271503        3.76351683
 C            2.49082061       -1.79206080        3.37005942
 C            0.38702895       -1.22947012        4.20229531
 C            1.11183083       -2.24079719        3.46776294
 C           -0.91674250       -0.84190971        3.71839019
 C            0.48508712        1.02100528        3.55377801
 C           -0.89370807        0.59072731        3.46072910
 C            1.05886323        1.65927495        2.45956397
 C            3.08121361        0.35468166        2.65675491
 C            2.41973439        1.47859634        2.17209523
 C            3.18117055       -1.91807032        2.09603114
 C            3.61831100       -0.59219143        1.69360617
 C            2.65602276       -2.76880613        1.14025151
 C            0.51335972       -2.82512229        2.35495239
 C            1.33494996       -3.34052611        1.35179470
 C           -1.57897815       -1.65718104        2.80846418
 C           -0.85436616       -2.63454950        2.10520007
 C           -2.73344927       -1.12231991        2.24629987
 C           -1.69681796        1.08106212        2.43586982
 C           -2.80946885        0.32152890        2.09251418
 C            0.22035188        2.26147762        1.51598019
 C           -1.14654923        1.94009467        1.47750181
 C            0.77655676        3.08575844        0.53683269
 C            2.93363802        2.03082991        1.00840637
 C            2.12929305        2.95765994        0.24194341
 C            3.62466515       -0.22456235        0.34644501
 C            3.60108329        1.14277486        0.06840131
 C            2.75396375       -2.40431903       -0.26093111
 C            3.21045527       -1.14092029       -0.63246785
 C            0.78205862       -3.64734844        0.04588588
 C            1.59862342       -2.96493657       -0.94596863
 C           -1.43214425       -3.26945126        1.00322561
 C           -0.59081770       -3.66945594       -0.11232272
 C           -3.33670716       -1.73200728        1.07693063
 C           -2.67964906       -2.77455453        0.44351151
 C           -3.51887769        0.60275492        0.86222812
 C           -3.93627523       -0.66929442        0.28651234
 C           -1.93040576        2.35137195        0.39242380
 C           -3.06536275        1.61856502        0.02916728
 C           -0.04872443        3.71339633       -0.38947479
 C           -1.44697786        3.33369848       -0.46744671
 C            0.43797537        3.89271150       -1.74760032
 C            2.55285584        2.85115943       -1.14561257
 C            3.31862420        1.62095352       -1.27244223
 C            1.65901380        3.21337748       -2.14292722
 C            2.91319458       -0.70253696       -1.92309403
 C            2.99419068        0.70671452       -2.26083957
 C            0.99617426       -2.22984994       -1.96623354
 C            1.75633906       -1.26025599       -2.60929253
 C           -1.16036492       -3.08487388       -1.30976687
 C           -2.54433689       -2.77077640       -1.00751334
 C           -0.39790136       -2.19421272       -2.06591222
 C           -4.00503685       -0.79700715       -1.09479602
 C           -3.18379168       -1.79714524       -1.76026741
 C           -3.50956981        1.64368623       -1.29092874
 C           -3.96056451        0.40731778       -1.90455746
 C           -1.82530511        3.30378305       -1.87383567
 C           -0.61350937        3.47470729       -2.65267708
 C           -2.72625377        2.33816163       -2.29144404
 C            1.31261309        2.25010771       -3.18047995
 C            1.92140583        1.00358806       -3.19802796
 C            1.09206516       -0.18299963       -3.31779165
 C           -0.11950714        2.33716144       -3.40744380
 C           -1.03401530       -1.15370115       -2.75451501
 C           -2.42571594       -1.11470941       -2.79359241
 C           -3.08538797        0.14781842       -3.03736432
 C           -2.26599498        1.32531795       -3.23129063
 C           -0.29135284       -0.06910878       -3.23737725
 C           -0.89690738        1.18017238       -3.44116548
