   70
C70 / DATE: 7/ 1/2024 / Origin: Program Fullerene / C70 from database
 C            1.39570791       -0.15994283        4.16391188
 C            2.49180112       -0.44670744        3.25630800
 C            2.38177778       -1.84355409        2.85691970
 C            0.52532682       -1.31906245        4.19329026
 C            1.21093540       -2.40685038        3.52434846
 C           -0.77552857       -0.91220551        3.69161021
 C            0.57188981        1.00228231        3.90560901
 C           -0.75626683        0.53029665        3.54090768
 C            1.12291737        2.04264357        3.17553942
 C            2.85847355        0.51034088        2.31308569
 C            2.33407258        1.80060047        2.40084696
 C            3.45128477        0.09264994        1.12762530
 C            2.69290053       -2.21362279        1.54513450
 C            3.32208748       -1.29528111        0.71013076
 C            2.06477897       -3.31562372        0.96731457
 C            0.43948356       -3.34215292        2.85398622
 C            1.00863023       -3.99424894        1.69402276
 C           -1.38778035       -1.69121512        2.71706374
 C           -0.93947329       -3.00150601        2.52798286
 C           -2.16711575       -1.07565641        1.73411988
 C           -1.40426315        1.11582028        2.45799329
 C           -2.10615980        0.31089228        1.55215251
 C            0.24402765        2.85738929        2.35865597
 C           -1.04751013        2.41496658        2.09221631
 C            2.27735215        2.64674644        1.21566109
 C            1.03382395        3.40244911        1.26876946
 C            3.36769497        0.92554836       -0.06219110
 C            2.73652279        2.16626816       -0.00634964
 C            3.01718645       -1.30612245       -0.71264769
 C            3.12317532        0.05303140       -1.20113450
 C            1.67526440       -3.25774482       -0.43586667
 C            2.00214480       -2.12986448       -1.18396093
 C           -0.07085076       -4.27131445        0.76340325
 C           -1.29636236       -3.72514626        1.31929372
 C            0.34963798       -3.83418805       -0.55684739
 C           -2.78125580       -1.86436849        0.76548975
 C           -2.21672947       -3.16433786        0.44888718
 C           -3.20210595       -1.26136722       -0.49003591
 C           -2.72921868        0.89791486        0.44631925
 C           -3.08087159        0.11362906       -0.65646327
 C           -1.74869187        3.04366869        1.07360841
 C           -2.73652554        2.28266815        0.33625624
 C            0.38539699        3.74928189        0.08750430
 C           -1.00595046        3.83806685        0.10685132
 C            2.22380969        2.71024350       -1.18086504
 C            1.05624106        3.57740236       -1.12376363
 C            2.27338902        0.48579053       -2.20685145
 C            2.08032275        1.85672798       -2.34850382
 C            1.09571878       -1.63604398       -2.13073284
 C            1.34611490       -0.40252117       -2.75535853
 C           -0.57450700       -3.20814251       -1.37920765
 C           -1.90659311       -3.14081537       -0.96905772
 C           -2.78095096       -2.14727057       -1.56471075
 C           -0.11994425       -2.30725195       -2.33863928
 C           -2.41151398       -1.58980229       -2.77684861
 C           -1.05091269       -1.80175941       -3.23907652
 C           -3.01774114        0.64377033       -1.95264575
 C           -2.72419445       -0.19633718       -3.02453307
 C           -2.85460430        2.88452123       -0.97593298
 C           -1.75544427        3.82508022       -1.13573426
 C           -2.86808400        2.01591397       -2.13345310
 C            0.31585412        3.40627981       -2.36905956
 C            0.97061358        2.35894335       -3.14014103
 C           -1.06947402        3.50530753       -2.37195905
 C           -1.86222929        2.50442300       -3.06684658
 C            0.51892549        0.04433202       -3.78272412
 C           -0.69402330       -0.68144262       -4.08160691
 C           -1.79719937        0.26586037       -4.04185731
 C            0.21182942        1.46173419       -3.87941823
 C           -1.23703762        1.59998526       -3.91779506
