   70
C70 / DATE: 7/ 1/2024 / Origin: Program Fullerene / C70 from database
 C            1.32688976       -0.04877809        4.24201889
 C            2.50707160       -0.23649183        3.41610117
 C            2.47615143       -1.60854349        2.93002887
 C            0.46031896       -1.20065209        4.04034824
 C            1.11807049       -2.08889874        3.09978364
 C           -0.86753088       -0.70950091        3.71728367
 C            0.52515155        1.14659771        4.06896742
 C           -0.85948846        0.72971554        3.91030740
 C            1.02430324        2.18666538        3.29604382
 C            2.93400913        0.78647967        2.56750502
 C            2.27200248        2.01297729        2.56287329
 C            3.78425664        0.47792958        1.50999047
 C            3.15709317       -1.92484417        1.76539082
 C            4.01294066       -0.91617797        1.17212838
 C            2.43958146       -2.58369229        0.68439648
 C            0.40480900       -2.52825546        1.98985562
 C            1.07857034       -2.83928491        0.80374938
 C           -1.53675897       -1.24741470        2.61973739
 C           -0.97931303       -2.34518446        1.96116765
 C           -2.54597163       -0.50540219        1.99555222
 C           -1.73102455        1.50620026        3.16119877
 C           -2.70210991        0.84471746        2.30707097
 C            0.12198210        2.97035433        2.46673634
 C           -1.22910589        2.66198226        2.42983173
 C            2.16935610        2.76886652        1.32339789
 C            0.81082636        3.28159671        1.22684524
 C            3.68323183        1.22514165        0.26480772
 C            2.80573466        2.30633323        0.17328221
 C            3.92802240       -1.05030026       -0.27146263
 C            2.92669105       -2.05167803       -0.57396799
 C            3.76147155        0.27228987       -0.83540457
 C            2.00654950       -1.78820236       -1.58325055
 C            0.33685735       -3.03541890       -0.35826594
 C            0.75905327       -2.41938982       -1.54697384
 C           -1.70637867       -2.96591396        0.95559708
 C           -0.98363782       -3.43559519       -0.20951583
 C           -3.18478316       -1.02090368        0.86496294
 C           -2.92116672       -2.33195780        0.48160217
 C           -3.80556517       -0.14971309       -0.03422348
 C           -3.03491068        1.77796646        1.24907309
 C           -1.92718377        2.71096580        1.15669768
 C           -3.58070968        1.28146195        0.08048443
 C            0.14101028        3.19960263        0.00837932
 C           -1.19794533        2.79487107       -0.03035158
 C            2.26740562        2.63513560       -1.07027192
 C            0.90781499        3.15062873       -1.14635555
 C            2.90925861        0.43433225       -1.91956106
 C            2.18618153       -0.66605417       -2.39658750
 C            2.44353051        1.71647755       -2.18105741
 C            1.35369596       -0.50309018       -3.49871716
 C           -0.11156999       -2.28016387       -2.63680666
 C            0.21632528       -1.39316665       -3.65935401
 C           -1.87991629       -3.38222124       -1.34092548
 C           -3.10519478       -2.73036389       -0.90399975
 C           -1.43066198       -2.72169805       -2.54488722
 C           -3.83427998       -0.46189953       -1.45710954
 C           -3.44949230       -1.72373876       -1.89074732
 C           -2.50799254       -1.85122658       -2.99163305
 C           -3.02889096        1.72394031       -1.18639238
 C           -1.76214504        2.30866708       -1.21846896
 C           -3.38293928        0.72184404       -2.17573024
 C            0.31771746        2.67683229       -2.38257359
 C            1.32978521        1.90364747       -3.09003170
 C            0.92832948        0.83678404       -3.87728417
 C           -1.00547105        2.24732553       -2.39313205
 C           -0.84689713       -0.63535020       -4.29700185
 C           -2.19303053       -0.73928457       -3.76135010
 C           -2.58796971        0.58692794       -3.30399117
 C           -0.46561912        0.76439354       -4.26961895
 C           -1.44639602        1.47080032       -3.46619226
