   70
C70 / DATE: 7/ 1/2024 / Origin: Program Fullerene / C70 from database
 C            1.24218681       -0.06835361        4.27105019
 C            2.47611558       -0.37175481        3.58993763
 C            2.40060856       -1.75597980        3.14922806
 C            0.39939841       -1.25485320        4.20022333
 C            1.01941291       -2.16559188        3.26592619
 C           -0.94609667       -0.80093396        3.92972795
 C            0.44096732        1.03876898        3.79240964
 C           -0.92820366        0.64851850        4.04894002
 C            0.74607168        1.64754924        2.57225072
 C            2.84184360        0.42043752        2.43445247
 C            1.96223826        1.37510265        1.92445473
 C            3.01864444       -1.82411754        1.84108584
 C            3.48439279       -0.48612933        1.50694113
 C            2.40873193       -2.57259064        0.83976952
 C            0.34176099       -2.51685485        2.10384210
 C            1.07883742       -2.98354440        1.01175940
 C           -1.66842854       -1.37460277        2.88540875
 C           -1.00348393       -2.15540611        1.92839748
 C           -2.87697524       -0.77105433        2.54777371
 C           -1.93855565        1.36089751        3.43090061
 C           -3.08210761        0.61244665        2.94361206
 C           -0.26990942        2.32706704        1.88813162
 C           -1.57389982        2.30944872        2.38873973
 C           -0.04939671        2.77964546        0.58573593
 C            2.14886035        1.79890996        0.60861083
 C            1.23393626        2.68803297        0.04598680
 C            3.54047877       -0.12570370        0.16738343
 C            3.08382413        1.13822143       -0.20423885
 C            2.91196677       -2.41163827       -0.44677048
 C            3.54054653       -1.14471430       -0.78451205
 C            2.13643107       -2.84506669       -1.59409417
 C            0.39638644       -3.58260870       -0.04167591
 C            0.95142356       -3.53003327       -1.38540432
 C           -1.64757075       -2.48143599        0.73064269
 C           -1.03713521       -3.37637838       -0.14171465
 C           -3.41546147       -0.92955481        1.20724656
 C           -2.72269095       -1.70557550        0.28498883
 C           -3.62191295        1.32787862        1.80593283
 C           -2.68423141        2.38151119        1.45674589
 C           -3.97118216        0.35095041        0.79362465
 C           -1.14479977        3.07185457       -0.24087306
 C           -2.40882205        2.60946441        0.11574497
 C           -0.93492196        3.41739153       -1.57166347
 C            1.51470236        3.28121852       -1.17950005
 C            0.41434184        3.64954113       -2.04277663
 C            3.22500121        1.51209736       -1.53643672
 C            2.52506591        2.68314360       -2.02485753
 C            3.21057745       -0.84025437       -2.16878016
 C            2.17442325       -1.77343488       -2.57984349
 C            3.10652289        0.48525376       -2.55655815
 C            0.98340239       -1.29322314       -3.12954352
 C           -0.14362103       -3.31189343       -2.31046555
 C           -1.37866836       -3.32246538       -1.54724000
 C           -0.13648175       -2.11437733       -3.13540099
 C           -2.91258092       -1.47655048       -1.08473357
 C           -2.19273452       -2.22069039       -2.01078873
 C           -1.44892690       -1.51140611       -3.04368175
 C           -3.85933421        0.72757910       -0.53426747
 C           -3.19536529        1.98240372       -0.85247235
 C           -3.41226634       -0.25014110       -1.50886722
 C           -1.62179935        2.65259181       -2.59704056
 C           -1.57127888       -0.12794020       -3.12565513
 C           -2.70088153        1.87376628       -2.21629250
 C           -2.70498328        0.46099461       -2.56312914
 C            0.56893382        2.90837788       -3.28634968
 C            1.88032209        2.30927975       -3.27557611
 C            1.98671929        0.87013302       -3.39155449
 C            0.83930205        0.07322593       -3.38574268
 C           -0.58846251        2.04627738       -3.41134361
 C           -0.44120829        0.65687249       -3.38776154
