   70
C70 / DATE: 7/ 1/2024 / Origin: Program Fullerene / C70 from database
 C            1.56737318        0.18898638        4.98120547
 C            0.76048373       -1.01630400        4.98852600
 C            1.52422146       -2.05220101        4.32100769
 C            2.67692275       -0.02636319        4.06405775
 C            2.68331824       -1.42272830        3.70313470
 C            2.57325432        0.96040133        3.00570862
 C            0.75332527        1.25919827        4.43625867
 C            1.50701345        1.87388367        3.36799459
 C           -0.55857886       -0.67845295        4.47644953
 C           -0.55338314        0.72797627        4.10557772
 C           -1.21801784       -1.58210883        3.65700356
 C            0.86667125       -2.85363362        3.30485177
 C           -0.50769529       -2.74723480        3.13864026
 C            2.66996585       -1.77016055        2.29738517
 C            1.71149149       -2.84345676        2.12220892
 C            2.68005899        0.58099273        1.66114209
 C            2.73565783       -0.77967523        1.31752693
 C            2.26227960        1.51152189        0.69376745
 C            0.80562871        2.43817286        2.32112434
 C            1.49459367        2.59469241        1.13167112
 C           -1.13022125        1.13233737        2.89979512
 C           -0.57396987        2.22619529        2.23248201
 C           -2.05892431       -1.07322834        2.58796205
 C           -1.92904242        0.24602039        2.17396968
 C           -1.06683480       -3.04722535        1.83538111
 C           -2.15162454       -2.11176243        1.58501588
 C            1.12795077       -2.99416100        0.86847186
 C           -0.21684653       -3.36257437        0.77985510
 C            2.42802670       -1.15138676        0.01356825
 C            1.71543124       -2.33431403       -0.21207875
 C            2.21595559        1.13265992       -0.65601417
 C            2.48963528       -0.19237574       -0.98780450
 C            1.61907766        1.97918649       -1.60121190
 C            0.91715133        3.44377525        0.20794965
 C            1.16696528        3.22607875       -1.19725425
 C           -1.22235471        2.72753060        1.10189036
 C           -0.50792733        3.65595734        0.34437457
 C           -2.29747464        0.58548902        0.87357302
 C           -2.16843130        1.91193703        0.46681776
 C           -2.41765678       -1.76546540        0.26556614
 C           -2.54614720       -0.41594369       -0.07942503
 C           -0.79407714       -3.43021585       -0.48126096
 C           -2.01120033       -2.66570569       -0.71103287
 C            1.28242075       -2.63401240       -1.50155359
 C            0.04373645       -3.25149290       -1.65268465
 C            2.38834194       -0.60974403       -2.30793428
 C            1.82513256       -1.92286618       -2.56853416
 C            1.25751087        1.48488852       -2.85976697
 C            1.85287941        0.30484230       -3.29747646
 C            0.13644070        2.00330497       -3.53517399
 C            0.06573455        3.83895227       -1.91028403
 C           -1.00264519        4.07629476       -0.94721545
 C           -0.50515547        3.13235198       -3.03496783
 C           -2.72563021        2.29354642       -0.75196305
 C           -2.20424629        3.45371088       -1.45077323
 C           -1.94176601        3.05945152       -2.82052392
 C           -2.73771596       -0.06391265       -1.42222566
 C           -2.99894583        1.26743998       -1.74417328
 C           -2.60053619        1.78590925       -3.04659681
 C           -2.02290347       -2.26376255       -2.10241300
 C           -0.84164281       -2.84049262       -2.72943064
 C           -2.41483028       -0.97305876       -2.43823625
 C            1.10066494       -1.85382546       -3.82687452
 C            1.21526341       -0.49436249       -4.32829512
 C           -0.30287388       -2.22528073       -3.84961001
 C           -0.63364263        1.16197520       -4.33560260
 C           -2.01419060        0.91667052       -3.95195139
 C           -2.11977156       -0.50797237       -3.71772376
 C           -0.08537178       -0.09051821       -4.81014020
 C           -1.03830279       -1.13435260       -4.46370763
