   70
C70 / DATE: 7/ 1/2024 / Origin: Program Fullerene / C70 from database
 C            1.29016630       -0.05144741        4.37403459
 C            2.56788482       -0.40683913        3.80247354
 C            2.56894585       -1.84050400        3.57467679
 C            0.43532571       -1.22796020        4.33305458
 C            1.23357412       -2.34419718        3.86559257
 C           -0.76938969       -0.87186681        3.60070598
 C            0.55376281        1.03768588        3.76921146
 C           -0.78784627        0.57077601        3.49530278
 C            1.15694486        1.83431866        2.80112679
 C            2.97334744        0.24024441        2.56889286
 C            2.27315786        1.34639644        2.10115676
 C            3.14817875       -2.08225975        2.26147337
 C            3.33879181       -0.79284651        1.61448552
 C            2.67516835       -3.14710426        1.50990879
 C            0.65652067       -3.24875260        2.98551066
 C            1.49847909       -3.86347233        1.97544167
 C           -1.14917264       -1.63344531        2.50083861
 C           -0.61222449       -2.91112439        2.34815013
 C           -1.77513583       -1.00804796        1.41544830
 C           -1.44493322        1.16137038        2.43008018
 C           -2.07022034        0.35769861        1.47273837
 C            0.33202126        2.74801089        2.14528769
 C           -1.03402896        2.43506915        2.05536206
 C            0.92376508        3.53021484        1.15923522
 C            2.40997544        1.66856648        0.75322050
 C            1.92806017        2.90104816        0.33031272
 C            2.98626417       -0.63075079        0.27250356
 C            2.55710774        0.62910316       -0.17228638
 C            2.55498873       -2.99737593        0.07027752
 C            2.80100511       -1.76231120       -0.53037976
 C            0.66474108       -4.15081804        0.82385016
 C           -0.63055561       -3.53944356        1.04109526
 C            1.39835540       -3.76635856       -0.36589423
 C           -1.94374124       -1.70280202        0.21560183
 C           -1.20354087       -2.86268461       -0.02310196
 C           -2.60360348       -1.09916126       -0.85611712
 C           -2.70869063        0.97715390        0.39295776
 C           -2.99555808        0.24516543       -0.76522905
 C           -1.86800763        3.14049747        1.19964459
 C           -2.78083184        2.37656607        0.36572462
 C            0.10212467        4.36193504        0.30541160
 C           -1.33259280        4.22706726        0.40328816
 C            1.49713769        3.05437682       -1.04546798
 C            0.48501394        4.08451719       -1.07170413
 C            2.07099641        0.78661791       -1.47447286
 C            1.32521798        1.91159492       -1.80951364
 C            2.39461807       -1.60333704       -1.85123879
 C            2.10813043       -0.27557626       -2.35601966
 C            0.67888974       -3.29124807       -1.45590750
 C           -0.69632513       -3.08963219       -1.30145688
 C            1.36570091       -2.49159322       -2.36237686
 C           -2.55574908       -1.74463000       -2.09563182
 C           -1.43360647       -2.61914143       -2.37824765
 C           -2.81670344       -1.01306810       -3.31531012
 C           -3.44639840        0.92857947       -1.89836437
 C           -3.24775840        0.35858774       -3.21521630
 C           -2.90342701        3.07750101       -0.90399556
 C           -1.84990484        4.07767198       -0.94227068
 C           -0.72189040        3.84352479       -1.82887633
 C           -3.10653559        2.32675464       -2.04690051
 C            0.24215442        1.79688162       -2.69865509
 C           -2.24246187        1.18043036       -3.87617346
 C           -0.79288109        2.75239234       -2.68943055
 C           -2.07250474        2.36277439       -3.06772111
 C            1.06198233       -0.38672333       -3.35592651
 C            0.62203357       -1.77698533       -3.38168461
 C           -0.72947560       -2.04998249       -3.51757770
 C           -1.58229327       -1.02418303       -4.08368862
 C            0.11901356        0.63604015       -3.48385732
 C           -1.09155736        0.34054071       -4.11338242
