   70
C70 / DATE: 7/ 1/2024 / Origin: Program Fullerene / C70 from database
 C            1.37950077        0.02095964        4.34638375
 C            2.57121991       -0.32212141        3.60678622
 C            2.51768322       -1.74479476        3.30822036
 C            0.53318774       -1.15930077        4.41374223
 C            1.25560925       -2.26384446        3.80660776
 C           -0.77584079       -0.80015575        3.88474510
 C            0.56473758        1.10999261        3.85588401
 C           -0.80747499        0.64159354        3.75948220
 C            1.04071118        1.93535679        2.84186594
 C            2.84250249        0.38323180        2.36681300
 C            2.04256088        1.45958726        1.98110294
 C            2.84412063       -1.91710338        1.90083916
 C            3.19342827       -0.61058156        1.37216590
 C            2.07609225       -2.78126189        1.11864333
 C            0.54900512       -3.15308310        3.01183362
 C            1.13059498       -3.58858310        1.75356679
 C           -1.33233146       -1.58300184        2.88111115
 C           -0.85297808       -2.88221525        2.73553272
 C           -2.00908749       -0.95704842        1.82351613
 C           -1.62197266        1.22974919        2.80005402
 C           -2.31984007        0.40905193        1.90773908
 C            0.13379307        2.86693025        2.35538629
 C           -1.27768146        2.51964750        2.40253807
 C            0.37847557        3.50671298        1.08152173
 C            2.02626898        1.82554353        0.62937901
 C            1.34979821        2.98138593        0.23898965
 C            2.91031009       -0.34665816        0.04493711
 C            2.52865533        0.94001378       -0.33583733
 C            1.99052210       -2.55057467       -0.26459337
 C            2.61731923       -1.41212120       -0.79355160
 C            1.08452534       -3.28790280       -1.04966428
 C            0.04036955       -4.14699752        0.98476553
 C           -1.20016504       -3.64412504        1.55806388
 C           -0.00317045       -3.88776987       -0.43358672
 C           -2.31556600       -1.66410574        0.64938991
 C           -1.93267090       -2.98700034        0.49984482
 C           -1.32801641       -3.38397976       -0.75439845
 C           -2.69345361       -0.96700335       -0.49187790
 C           -3.08367751        0.99804442        0.89816075
 C           -3.29943857        0.27151549       -0.33898146
 C           -1.92792739        3.12821951        1.25717454
 C           -0.91644840        3.88431522        0.53492731
 C           -2.87516323        2.39744658        0.55687378
 C           -1.03634212        4.06651834       -0.83592460
 C            1.34754812        3.36047849       -1.09764528
 C            0.17094744        4.02206171       -1.64028526
 C            2.41012894        1.23242461       -1.69941145
 C            1.83332688        2.43273012       -2.09863973
 C            2.61527411       -1.17693109       -2.15917157
 C            2.45382090        0.19014498       -2.62581727
 C            0.90380520       -2.94769726       -2.38462412
 C            1.82900197       -2.03494796       -3.01299290
 C           -1.45439250       -2.54330577       -1.85769333
 C           -2.24025649       -1.38942746       -1.74953764
 C           -0.43909860       -2.58746223       -2.81504351
 C           -2.33228937       -0.53175565       -2.84491850
 C           -3.29465163        1.22445713       -1.43455249
 C           -2.96587229        2.53096366       -0.88901422
 C           -2.08270962        3.36606216       -1.56770021
 C           -2.78367518        0.83752135       -2.66418857
 C           -0.15526477        3.39348954       -2.90813431
 C            0.87921044        2.41908341       -3.19831512
 C           -1.53460789        2.95344818       -2.85168965
 C           -1.85865663        1.70859207       -3.37542894
 C            1.48623556        0.17952956       -3.71284249
 C            1.07889735       -1.19492389       -3.93226208
 C           -0.32473568       -1.53427708       -3.81132710
 C           -1.25932638       -0.51123645       -3.82269876
 C            0.53781248        1.19611326       -3.76723101
 C           -0.81221750        0.87038247       -3.94900660
