   70
C70 / DATE: 7/ 1/2024 / Origin: Program Fullerene / C70 from database
 C            1.61467587        0.02727332        4.54901244
 C            0.80109195       -1.17072042        4.50338402
 C            1.27778646       -2.01024742        3.41449458
 C            2.61723215       -0.08470192        3.50786347
 C            2.42401422       -1.35001320        2.82188989
 C            2.56856657        1.12835996        2.71018636
 C            0.75441434        1.14611977        4.20649371
 C            1.37061151        1.84832578        3.10238082
 C           -0.58546953       -0.74898354        4.47332712
 C           -0.58971555        0.63572688        4.02546491
 C           -1.49133737       -1.61538509        3.89395765
 C            0.32747873       -2.61270522        2.59347365
 C           -0.96306565       -2.72033052        3.10846184
 C            0.52528146       -2.62624413        1.20072715
 C            2.56598739       -1.35189686        1.44502824
 C            1.72699328       -2.14864728        0.66243526
 C            2.84639154        1.01959855        1.34831274
 C            3.16870521       -0.24413959        0.85818072
 C            2.27915996        1.94938069        0.46613097
 C            0.56796879        2.33817433        2.08792861
 C            1.19990267        2.71783775        0.91282543
 C           -1.28749723        0.97842010        2.86415720
 C           -0.78487096        1.97722566        2.02686700
 C           -2.55140253       -1.05344594        3.08651844
 C           -2.30867555        0.14196596        2.40313360
 C           -2.03727233       -3.16381926        2.25168869
 C           -3.11118139       -2.18673282        2.38287538
 C           -0.52965594       -2.94058667        0.33402728
 C           -1.77081271       -3.31817818        0.84116688
 C           -0.42743439       -2.60068250       -1.01633337
 C            1.92291040       -2.14577088       -0.72478796
 C            0.83387839       -2.39469882       -1.57408104
 C            3.55965246       -0.35423041       -0.46063153
 C            3.05785913       -1.48723801       -1.20833346
 C            2.51797015        1.80272957       -0.90737260
 C            3.39608065        0.80389495       -1.31489274
 C            1.66909814        2.41734828       -1.83884437
 C            0.46122005        3.46093205        0.01024571
 C            0.81926072        3.42671821       -1.39120576
 C           -1.51764250        2.35365699        0.90286786
 C           -0.98360052        3.35646739        0.09529122
 C           -2.87172897        0.36462996        1.13550118
 C           -2.44075541        1.44976181        0.36376090
 C           -3.66427586       -1.97392626        1.07046013
 C           -2.95957439       -2.85998022        0.15787367
 C           -3.59776240       -0.64499547        0.49812305
 C           -1.56269241       -2.17767229       -1.72457900
 C           -2.79004780       -2.13845612       -1.08273866
 C           -3.40794745       -0.83768955       -0.92420799
 C           -1.39089242       -1.30438168       -2.79205363
 C            0.90305543       -2.08737837       -2.93593328
 C           -0.23668141       -1.43517279       -3.55283077
 C            3.17148967       -1.13372923       -2.60791999
 C            3.34040414        0.31330206       -2.67366133
 C            2.09886206       -1.49671031       -3.49920840
 C            1.51215671        1.88518941       -3.13270269
 C            0.25300300       -0.31285165       -4.33877761
 C            2.32529423        0.83796769       -3.55785630
 C            1.70054205       -0.29738147       -4.21627085
 C            0.31227761        2.06806349       -3.82058619
 C           -0.42032313        0.89715716       -4.27031474
 C           -0.38418780        3.75182243       -2.13263062
 C           -1.51405053        3.56265665       -1.23482334
 C           -0.66344742        3.02784974       -3.34957878
 C           -2.68307338        1.43140148       -1.01880919
 C           -2.87751429        0.20982340       -1.65853159
 C           -2.09386115       -0.09397391       -2.77348931
 C           -1.71493163        0.94486779       -3.61738071
 C           -2.35979014        2.53573626       -1.79895322
 C           -1.91810494        2.31331244       -3.16619674
