   70
C70 / DATE: 7/ 1/2024 / Origin: Program Fullerene / C70 from database
 C            1.37818170       -0.09615274        4.18626565
 C            2.60444681       -0.37915209        3.47759801
 C            2.48602567       -1.70461038        2.89005660
 C            0.52305111       -1.26877200        4.07754132
 C            1.13681589       -2.17255991        3.12416629
 C           -0.82864420       -0.80235101        3.81700116
 C            0.58951471        1.04993590        3.77842391
 C           -0.80019442        0.64815815        3.89132002
 C            0.98965226        1.82211940        2.68321511
 C            3.01715903        0.52313809        2.42363614
 C            2.27988170        1.67380393        2.15086064
 C            2.95973822       -1.62515536        1.52196316
 C            3.47368958       -0.28696572        1.30711215
 C            2.21257784       -2.20557764        0.50934686
 C            0.38031070       -2.60212207        2.04200661
 C            0.99415086       -2.82835521        0.80615114
 C           -1.57255074       -1.41180666        2.80819908
 C           -1.00366637       -2.47853202        2.10009478
 C           -2.67661158       -0.73220990        2.27905593
 C           -1.75069503        1.36615755        3.18971348
 C           -2.76707597        0.64845411        2.43629436
 C            0.02973222        2.59338599        2.01191621
 C           -1.31492421        2.48028164        2.36744168
 C            0.37234441        3.32280841        0.87029211
 C            2.62636761        2.37211568        1.00163480
 C            1.67939352        3.28804120        0.40009884
 C            3.41186271        0.26076163        0.02816963
 C            3.28545026        1.64642253       -0.07400477
 C            2.47526990       -1.81687246       -0.79779407
 C            3.01371606       -0.54719072       -1.04445378
 C            1.90882133       -2.55578634       -1.82918751
 C            0.25061668       -3.40671252       -0.22937786
 C            0.77259004       -3.40894053       -1.52351555
 C           -1.76281083       -3.17101858        1.16921122
 C           -1.11616089       -3.64161478       -0.04519667
 C           -3.39895705       -1.30745228        1.23859373
 C           -3.06130648       -2.64646621        0.80707145
 C           -3.66091907       -0.50894042        0.04870317
 C           -3.10843409        1.45762003        1.27722782
 C           -2.33761191        2.68742038        1.35885330
 C           -3.28100687        0.82557905        0.04682918
 C           -0.63408316        3.83429384        0.04977737
 C           -1.98970979        3.33603587        0.18798937
 C           -0.38953513        3.98056349       -1.37436054
 C            1.93816143        3.31321791       -1.03393159
 C            2.89179435        2.25600762       -1.33288906
 C            0.89413987        3.57196608       -1.91339784
 C            2.90337409        0.01532099       -2.31515837
 C            2.70641842        1.44940489       -2.44641309
 C            1.67577246       -1.93705393       -3.12434485
 C            2.06931627       -0.62335757       -3.31584331
 C           -0.13947971       -3.34293875       -2.65056379
 C            0.34443145       -2.31934708       -3.55639666
 C           -2.04539237       -3.43562086       -1.15191140
 C           -3.17441951       -2.68785021       -0.63952288
 C           -3.37103746       -1.32852904       -1.11046702
 C           -1.53721189       -3.07417885       -2.38836890
 C           -0.67503563       -1.28830256       -3.65126835
 C           -2.53409837       -0.83301591       -2.10670529
 C           -1.83192745       -1.73987329       -2.90199484
 C           -2.67289046        1.36312696       -1.08895566
 C           -2.33756053        2.71388928       -1.07683998
 C           -1.42670975        3.23405599       -2.07271760
 C           -2.13703763        0.50898444       -2.06801219
 C            0.63395493        2.65547526       -3.01248910
 C            1.55489284        1.66115037       -3.31356795
 C            1.06607054        0.35165938       -3.71161108
 C           -0.28539143        0.04029937       -3.55770227
 C           -0.77479629        2.30414284       -2.96574859
 C           -1.13180121        0.95958738       -2.93911984
