   70
C70 / DATE: 7/ 1/2024 / Origin: Program Fullerene / C70 from database
 C            1.12132476        0.10222612        4.41666582
 C            2.38380494       -0.13886268        3.75499572
 C            2.40477943       -1.53944054        3.38129932
 C            0.29854359       -1.09024919        4.25758353
 C            1.03775047       -2.02608057        3.44710922
 C           -1.00308761       -0.66590170        3.80055943
 C            0.32568359        1.22884669        3.98156461
 C           -1.05276302        0.78255877        3.91102888
 C            0.79492156        2.06081454        2.97101612
 C            2.70066443        0.63025810        2.56482607
 C            1.80995858        1.60416167        2.11840428
 C            3.10024777       -1.64208044        2.11539800
 C            3.27949084       -0.28920983        1.60309043
 C            2.67636675       -2.62116085        1.23220069
 C            0.46326479       -2.54590143        2.28818647
 C            1.32433497       -3.14527014        1.37809742
 C           -1.57205070       -1.26562272        2.68516652
 C           -0.79472945       -2.08994522        1.85128836
 C           -2.70888382       -0.65865814        2.17901862
 C           -1.92998467        1.49213223        3.09354210
 C           -2.88585708        0.77581846        2.36746035
 C           -0.09667012        3.01308123        2.50173319
 C           -1.52223116        2.74887356        2.64491072
 C            0.11161260        3.60304750        1.19668866
 C            1.77589360        1.92443650        0.75540689
 C            1.02762286        3.02496906        0.32566449
 C            3.08896765       -0.05717778        0.24443026
 C            2.45752232        1.12000321       -0.17438285
 C            2.89560622       -2.41020304       -0.18330199
 C            3.19469929       -1.13272383       -0.63960946
 C            0.84430115       -3.49596994        0.06238251
 C            1.89698526       -3.18704571       -0.89416041
 C           -1.26634129       -2.44182008        0.56684001
 C           -0.46929704       -3.23034919       -0.28461185
 C           -3.17596415       -0.99969883        0.85833619
 C           -2.51025265       -1.96213176        0.11701970
 C           -3.45235735        1.31909084        1.13750438
 C           -3.57331485        0.22864759        0.18922343
 C           -2.20273858        3.37555636        1.52705109
 C           -1.19228596        3.98978961        0.68445171
 C           -3.05524293        2.56522198        0.68223424
 C           -1.51035351        3.67707998       -0.69503904
 C           -2.58950373        2.70076577       -0.68987437
 C            0.87585937        3.26754237       -1.03489289
 C           -0.45975875        3.49241071       -1.57476281
 C            2.39598023        1.40996444       -1.54190516
 C            1.59617143        2.45475030       -1.99229423
 C            3.09117267       -0.89675212       -2.00108923
 C            2.80345188        0.44698970       -2.46121590
 C            1.54617650       -2.80390676       -2.18660139
 C            2.31378585       -1.82194039       -2.81548218
 C           -0.78581863       -3.34836326       -1.63401291
 C            0.24230808       -3.05602074       -2.62271740
 C           -2.81441058       -1.99565645       -1.23914681
 C           -2.03570501       -2.82375449       -2.12346594
 C           -3.20094109        0.40965060       -1.14072353
 C           -2.50736021        1.56905794       -1.50758125
 C           -3.07663492       -0.73514013       -1.91745845
 C           -0.62819022        2.55575146       -2.66420947
 C            0.70606792        2.23873824       -3.12580440
 C           -1.56611494        1.53200807       -2.54872751
 C            2.09006697        0.33129302       -3.72212846
 C            1.75655449       -1.06883529       -3.92323031
 C            0.88208296        1.11176976       -3.90862813
 C           -0.36517641       -2.23787799       -3.66741003
 C           -1.76187738       -2.05326388       -3.32538505
 C           -2.25552092       -0.70399201       -3.10904159
 C           -1.40099340        0.37216303       -3.31210507
 C            0.33504194       -1.15849949       -4.18258941
 C           -0.22665558        0.18003720       -4.04878997
