   70
C70 / DATE: 7/ 1/2024 / Origin: Program Fullerene / C70 from database
 C            1.57952994        0.01813725        4.87095334
 C            0.78995505       -1.11912845        4.45530561
 C            1.46235706       -1.76510807        3.34086622
 C            2.71175363        0.10481556        3.96929287
 C            2.51393678       -0.86825881        2.90620347
 C            2.83710665        1.49492594        3.61010702
 C            0.76494919        1.20481390        4.65737240
 C            1.59513364        2.16693774        3.98731608
 C           -0.56003652       -0.64695304        4.21952119
 C           -0.46214063        0.78420616        4.01017770
 C           -1.30637353       -1.35836026        3.30510177
 C            0.64118021       -2.34556899        2.38538960
 C           -0.70011136       -2.46760287        2.72472269
 C            0.95548228       -2.21017932        1.02781290
 C            2.53294530       -0.45038775        1.57602700
 C            1.81419606       -1.18167128        0.62061505
 C            3.06223074        1.82228490        2.22119827
 C            3.03557976        0.81659131        1.24986704
 C            1.08885686        2.80022874        2.78663155
 C            2.26839385        3.00774490        1.98172296
 C           -0.82818820        1.30355554        2.75823902
 C           -0.06211289        2.30973150        2.15404356
 C           -2.19211059       -0.64175859        2.51142017
 C           -1.75132205        0.57940594        1.99501139
 C           -3.11312835       -1.38888514        1.79903857
 C           -1.49045989       -3.25396589        1.91434121
 C           -2.86235630       -2.81866250        1.73509490
 C            0.10048480       -2.81599506        0.09795613
 C           -0.97668521       -3.56361905        0.59308227
 C            0.11521568       -2.40745493       -1.24921691
 C            1.86326451       -0.79681933       -0.72059713
 C            1.02630641       -1.41731581       -1.66238458
 C            2.98920722        1.23419419       -0.07721681
 C            2.62180838        0.32591355       -1.07173247
 C            2.08091282        3.36487722        0.67020792
 C            2.79864773        2.59509968       -0.31695173
 C           -0.23523055        2.59624131        0.79324115
 C            0.71964231        3.39711688        0.17197513
 C           -1.88356027        0.83569408        0.62084936
 C           -1.07407998        1.79507682        0.00552112
 C           -3.48486341       -0.95635036        0.46625574
 C           -2.74944671        0.05454065       -0.15272417
 C           -3.30356711       -3.29928841        0.44846839
 C           -2.12786341       -3.80094282       -0.24634258
 C           -3.78780107       -2.15004569       -0.29184520
 C           -0.92496533       -2.80659914       -2.11372275
 C           -2.13084106       -3.20916419       -1.55287690
 C           -3.22309658       -2.24946771       -1.60711088
 C           -1.06502617       -2.14852877       -3.32658356
 C            1.07062382       -1.02233014       -3.00818680
 C            0.04534071       -1.40807276       -3.86581254
 C            2.64156858        0.76151894       -2.39453107
 C            1.90949644        0.01899724       -3.39988597
 C            2.22434388        2.99891759       -1.57239382
 C            0.84289708        3.36420771       -1.26783168
 C            2.44342130        2.18227726       -2.66227288
 C           -1.08170339        1.92822814       -1.39825911
 C           -0.16543337        2.79278591       -2.02824286
 C           -2.64662547        0.07532563       -1.55287799
 C           -2.95335686       -1.08450411       -2.29687309
 C           -2.23905633       -1.30008804       -3.45857480
 C           -1.93038079        1.11341752       -2.16987983
 C           -0.54744998       -0.42707166       -4.76099960
 C           -1.87641723       -0.16082166       -4.24831722
 C           -1.81591229        1.10749464       -3.56521081
 C            1.43758199        0.98895924       -4.37878625
 C            1.48745920        2.28209747       -3.73885575
 C            0.12484987        2.62938767       -3.37963224
 C            0.09626235        0.85505881       -4.90094208
 C           -0.74121920        1.83016310       -4.20327868
