   70
C70 / DATE: 7/ 1/2024 / Origin: Program Fullerene / C70 from database
 C            1.58572207       -0.01171926        5.29652225
 C            0.81479288       -1.24120302        5.23760019
 C            1.67606296       -2.24877323        4.65804050
 C            2.69605529       -0.15606002        4.37065747
 C            2.80728568       -1.55907059        4.04686046
 C            2.49558549        0.78923390        3.28906203
 C            0.73736923        1.05543444        4.79992232
 C            1.39280716        1.65820038        3.65192917
 C           -0.45141222       -0.93461735        4.58550049
 C           -0.59301482        0.51138898        4.60856865
 C           -0.84557595       -1.64691515        3.44536715
 C            1.11580534       -3.12971901        3.65580562
 C           -0.20130892       -2.83643352        3.11390290
 C            2.84598619       -1.94647318        2.65008803
 C            2.03429661       -3.13454334        2.53133778
 C            2.58808360        0.37311862        1.96396131
 C            2.73393647       -0.98448335        1.64611558
 C            2.08907374        1.22884886        0.98495256
 C            0.59035608        2.15434737        2.62859768
 C            1.08015216        2.13296027        1.31995391
 C           -1.38439980        1.10619103        3.64368737
 C           -0.78946613        2.13912875        2.81256343
 C           -1.69188506       -1.04139002        2.50681638
 C           -2.13404932        0.25633137        2.73743261
 C           -1.83988412       -1.58966994        1.22449919
 C           -0.15817194       -3.23916530        1.72620276
 C            1.23639951       -3.27855857        1.33239429
 C           -1.03486113       -2.66233937        0.82319182
 C            2.37799480       -1.40664697        0.36166799
 C            1.58261039       -2.54690302        0.20230030
 C            2.24864837        0.87763028       -0.34944330
 C            2.38565969       -0.47357646       -0.66833793
 C            1.81446381        1.76459437       -1.33659108
 C            0.29079100        2.65560156        0.29367881
 C            0.80497820        2.67756066       -1.00944015
 C           -1.64343984        2.26126915        1.65273304
 C           -2.49775493        1.08972940        1.60653404
 C           -1.09803208        2.68440021        0.45681396
 C           -2.54726860       -0.87979886        0.23776672
 C           -2.71751671        0.50182898        0.36514211
 C           -2.66201182       -1.45017187       -1.02921410
 C           -0.68157466       -2.73822503       -0.51733629
 C            0.66371561       -2.55173131       -0.84738893
 C           -1.65583051       -2.41166405       -1.43932158
 C            1.99762888       -0.89376893       -1.93347270
 C            0.99186849       -1.86050151       -2.01528178
 C            2.04061736        1.41164846       -2.66772988
 C            2.17657516        0.00118566       -2.97633100
 C            1.27232446        2.02587128       -3.73574407
 C           -0.00830306        3.20739231       -2.01524596
 C            0.25250033        2.90901318       -3.41247414
 C           -1.87880443        2.50818567       -0.67107555
 C           -2.60911541        1.31526021       -0.77317779
 C           -1.44206232        3.14455460       -1.81649377
 C           -2.94220107       -0.60442833       -2.17849570
 C           -2.90439258        0.77773769       -2.03178789
 C           -1.26659991       -2.09640145       -2.79714295
 C            0.07044551       -1.82761983       -3.06892599
 C           -2.29449069       -1.22006833       -3.32813836
 C            1.52078541       -0.25299468       -4.24007472
 C            1.07826800        1.02308681       -4.77483960
 C            0.39173717       -1.15770842       -4.24669250
 C           -2.00356723       -0.44296322       -4.44004352
 C           -0.23910229        0.82253101       -5.35243298
 C           -0.67076275       -0.52526178       -5.01540545
 C           -1.03355557        2.83316103       -4.09471927
 C           -2.06821423        2.82427198       -3.07598378
 C           -2.78378931        1.57123574       -3.17311976
 C           -1.30985002        1.73471337       -5.00251857
 C           -2.39911367        0.95392071       -4.43374979
