   70
C70 / DATE: 7/ 1/2024 / Origin: Program Fullerene / C70 from database
 C            1.28332871       -0.03202262        4.66655744
 C            2.60754676       -0.18904624        4.09701249
 C            2.66472558       -1.49758319        3.47434702
 C            0.48398684       -1.17761045        4.26278066
 C            1.32533767       -2.06468806        3.48855313
 C           -0.72932105       -0.68230181        3.65454875
 C            0.53491404        1.16855883        4.34845361
 C           -0.74134330        0.76438758        3.76869374
 C            1.20938872        2.24805054        3.79538335
 C            3.07081226        0.78468805        3.12099844
 C            2.44160935        2.01623167        3.04422444
 C            3.32961258       -1.34801052        2.19281549
 C            3.35564633        0.07295048        1.88572536
 C            2.97231394       -2.22094303        1.18381151
 C            0.83377419       -2.61245646        2.30576383
 C            1.76554711       -3.01497421        1.36001683
 C           -1.16587581       -1.24290552        2.46857294
 C           -0.46459934       -2.30256291        1.87665915
 C           -2.06318298       -0.51488164        1.70440329
 C           -1.30685427        1.52555383        2.73833181
 C           -1.97258878        0.87926751        1.68576786
 C            0.43604560        3.22033446        3.05328021
 C           -0.87857843        2.83572511        2.56741758
 C            2.26518298        2.61970434        1.73731667
 C            1.22446472        3.60461576        1.89495188
 C            2.81813672        0.52925856        0.67397928
 C            2.26564910        1.81106123        0.59645230
 C            2.91914442       -1.71641921       -0.17178553
 C            2.65616990       -0.36739000       -0.38448740
 C            1.31051717       -3.38328886        0.03932368
 C            2.16404384       -2.69581339       -0.91801088
 C           -0.94289043       -2.83043330        0.66576321
 C           -0.05279809       -3.44687063       -0.22763490
 C           -2.75818520       -1.18149380        0.71671557
 C           -2.20802254       -2.43086252        0.22456538
 C           -3.27865923       -0.43754018       -0.40887615
 C           -2.35813322        1.59484065        0.53499964
 C           -3.01554566        0.92261225       -0.51479288
 C           -1.02658196        3.45581278        1.27284802
 C            0.30947266        3.78205142        0.80151647
 C           -1.89631170        2.90856094        0.34069608
 C            1.50492201        2.18319101       -0.52614783
 C            0.66304316        3.30773124       -0.45180398
 C            1.91110931       -0.00176389       -1.50696569
 C            1.38792107        1.29470215       -1.60952092
 C            1.59535409       -2.32742733       -2.12307424
 C            1.60158561       -0.97143601       -2.47259782
 C           -0.40345782       -3.59542250       -1.56988748
 C            0.54843426       -3.12904564       -2.56214272
 C           -2.57226722       -2.54717777       -1.17541184
 C           -3.16947505       -1.28309409       -1.59005859
 C           -1.72619954       -3.22164108       -2.03525159
 C           -2.83871379       -0.71186821       -2.82093294
 C           -3.10872488        1.50194363       -1.77901325
 C           -2.89655048        0.67587232       -2.95929750
 C           -1.69653421        3.35141505       -0.95970925
 C           -0.31971420        3.46459410       -1.41340217
 C           -2.46769223        2.76981562       -2.02621478
 C            0.64951243        1.66582016       -2.74324447
 C           -1.92071611        1.35583936       -3.80690581
 C           -0.21697688        2.74786283       -2.65862061
 C           -1.57214842        2.59799572       -3.15583965
 C            1.02128810       -0.57706997       -3.67352711
 C            0.44556039        0.74781911       -3.77334247
 C           -0.88971530        0.61073014       -4.35228202
 C           -0.18366917       -2.75945538       -3.75071451
 C           -1.59837248       -2.75845877       -3.40609252
 C           -2.13531217       -1.45906287       -3.76737020
 C            0.12793584       -1.48977688       -4.37018219
 C           -1.12832548       -0.79679949       -4.57810520
