   70
C70 / DATE: 7/ 1/2024 / Origin: Program Fullerene / C70 from database
 C            1.50290264       -0.19855283        4.28007780
 C            2.68150845       -0.36992680        3.44514620
 C            2.47765120       -1.56631234        2.64614565
 C            0.66086972       -1.36749422        4.10706950
 C            1.34743796       -2.28247706        3.21543802
 C           -0.67165738       -0.91576487        3.74315960
 C            0.67367507        0.98107469        4.09608340
 C           -0.64056924        0.53265484        3.66633209
 C            1.23433000        2.10067346        3.50110645
 C            3.24193937        0.74922889        2.85041907
 C            2.62675702        2.04574658        3.08743417
 C            3.60893247        0.69281912        1.44562738
 C            2.62498836       -1.51361061        1.25909076
 C            3.19216438       -0.38101897        0.65722031
 C            2.02684306       -2.50444956        0.47468751
 C            0.57665424       -3.07397617        2.38061669
 C            1.02378587       -3.30329436        1.01895451
 C           -1.37324190       -1.61882662        2.76813516
 C           -0.85652447       -2.83466731        2.31537134
 C           -2.31212465       -0.94215454        1.98436740
 C           -1.27385954        1.14986348        2.59404769
 C           -2.28536094        0.45733751        1.92949130
 C            0.49373550        2.79781062        2.46258726
 C           -0.70779840        2.28022535        1.99333845
 C            2.76370346        2.83181042        1.87552036
 C            3.51387064        2.04384238        0.91639881
 C            1.44564871        3.31242110        1.49624271
 C            3.22245956        2.20964576       -0.42714401
 C            3.16463400       -0.23233590       -0.73273164
 C            3.20043321        1.04345404       -1.29093599
 C            2.14916498       -2.45542950       -0.90723581
 C            2.73519358       -1.28514502       -1.52913380
 C            1.02977029       -2.88607460       -1.73235105
 C           -0.15381538       -3.60691288        0.21785251
 C           -1.32225870       -3.39070535        1.05613643
 C           -0.17700509       -3.22289644       -1.12142251
 C           -3.04529042       -1.66591009        1.04464598
 C           -2.47225374       -2.87722699        0.48459413
 C           -3.75001223       -0.97869980       -0.02438646
 C           -3.03340590        1.13909215        0.97438880
 C           -3.76596084        0.40700255       -0.04355516
 C           -1.16673275        2.69117011        0.74238419
 C           -2.44697883        2.31014390        0.35206963
 C            1.09435836        3.30890199        0.14947636
 C            2.07911395        3.02774721       -0.79997389
 C           -0.25150094        3.17287140       -0.20239449
 C            2.32828395        1.34980953       -2.41618777
 C            1.69182164        2.62836101       -2.14245401
 C            1.97684986       -0.99476691       -2.73740003
 C            1.03555482       -2.08162927       -2.94138202
 C            1.59691220        0.31960874       -3.00391954
 C           -0.16092216       -1.82503615       -3.58598916
 C           -1.38794088       -2.87000838       -1.72811675
 C           -2.54808618       -2.76316986       -0.95949050
 C           -3.51817763       -1.71982510       -1.25529052
 C           -1.38816705       -2.36311248       -3.02681471
 C           -3.44187062       -1.04654575       -2.46780985
 C           -2.47449800       -1.49566699       -3.45242729
 C           -3.61786111        1.11891614       -1.30363448
 C           -2.81505147        2.30595802       -1.05267928
 C           -3.45853046        0.40883756       -2.48971534
 C           -0.59826408        3.22075632       -1.55217075
 C            0.38418262        2.82701690       -2.54669295
 C           -1.89246944        2.73076666       -1.99563499
 C            0.34097055        0.58260468       -3.56285744
 C           -0.44111796       -0.47188089       -4.03184551
 C           -1.88649353       -0.32143030       -4.07643647
 C           -2.48901306        0.85630331       -3.47900996
 C           -0.24264783        1.84074993       -3.40604801
 C           -1.67963888        1.95170857       -3.20638549
