   70
C70 / DATE: 7/ 1/2024 / Origin: Program Fullerene / C70 from database
 C            1.60598215        0.03517081        4.68355454
 C            0.81123350       -1.17206935        4.54277157
 C            1.47613400       -2.03583324        3.58047764
 C            2.70950412       -0.05458888        3.74696782
 C            2.74503992       -1.41187133        3.23761374
 C            2.59151898        1.03593571        2.78931398
 C            0.77834870        1.15235886        4.27556244
 C            1.42048718        1.80917296        3.14709064
 C           -0.56194278       -0.77539976        4.28806815
 C           -0.58012015        0.66653326        4.09582957
 C           -1.32831332       -1.56884568        3.45015888
 C            0.71544818       -2.64494661        2.58042670
 C           -0.67720035       -2.62048786        2.68235314
 C            1.31988148       -2.99885021        1.36843559
 C            3.24654696       -1.59968543        1.96318436
 C            2.62063795       -2.58598394        1.10296961
 C            2.84465935        0.76711620        1.44652977
 C            3.48512380       -0.42660772        1.13714040
 C            2.10624107        1.42382067        0.45066372
 C            0.60308106        2.28683331        2.13570378
 C            1.05570714        2.27456517        0.81314744
 C           -1.32062649        1.21031488        3.05003818
 C           -0.76647712        2.29038123        2.36659065
 C           -2.30690279       -0.94008704        2.57930590
 C           -2.29766717        0.44099518        2.40582799
 C           -1.49614190       -2.86575904        1.50903011
 C           -2.45756310       -1.78046367        1.40786845
 C            0.54603953       -3.48643602        0.31762684
 C           -0.89872937       -3.34521122        0.35769517
 C            0.97324745       -3.27027981       -1.05983803
 C            2.99535173       -2.24263269       -0.25802561
 C            3.50133222       -0.87780171       -0.23082030
 C            2.18346255       -2.62628963       -1.32502148
 C            2.29470259        1.08636553       -0.89726264
 C            3.09430367       -0.01980235       -1.23464307
 C            1.52647165        1.72391263       -1.88405677
 C            0.23413111        2.83868876       -0.16941282
 C            0.40063529        2.47587146       -1.51441554
 C           -1.56462799        2.97706866        1.47616105
 C           -0.95014369        3.44515809        0.25099520
 C           -2.92693401        0.97819451        1.27794179
 C           -2.80906082        2.35366504        1.08901793
 C           -2.68109123       -1.16211259        0.18389686
 C           -3.17583957        0.14022293        0.17668396
 C           -1.32783881       -2.82598685       -0.92841993
 C           -0.21070924       -2.93377314       -1.84363798
 C           -2.13214347       -1.69604995       -0.98760921
 C           -0.09597117       -2.02249689       -2.88738138
 C            2.32069660       -1.92534877       -2.52304855
 C            2.93876593       -0.60933841       -2.47702597
 C            1.17792165       -1.80588110       -3.40835523
 C            1.74313002        1.41517661       -3.22896018
 C            2.40384329        0.17452281       -3.56049594
 C            1.43639798       -0.65954244       -4.25702483
 C            0.64794208        1.53296797       -4.16265567
 C            0.33072904        0.18955062       -4.62644321
 C           -0.59575364        2.77495636       -2.46868818
 C           -0.58320823        2.11190454       -3.68907390
 C           -2.02845978        3.65102072       -0.68767596
 C           -3.20103029        2.95811521       -0.16576800
 C           -1.84121050        3.22788091       -2.05113235
 C           -3.60831601        0.66719861       -1.03801821
 C           -3.71181738        2.10213810       -1.20984473
 C           -3.00558541        2.44521353       -2.42803318
 C           -2.15786237       -0.94977042       -2.16591878
 C           -1.11565926       -1.07902052       -3.09697697
 C           -0.98495789       -0.12632324       -4.10945236
 C           -1.64424856        1.15208032       -3.95626337
 C           -3.05827070        0.11239470       -2.26410197
 C           -2.78225538        1.21811063       -3.17114127
