   70
C70 / DATE: 7/ 1/2024 / Origin: Program Fullerene / C70 from database
 C            1.33042535        0.02008578        5.52784444
 C            0.43093077       -1.10603756        5.69212385
 C            1.06696628       -2.26962406        5.09728615
 C            2.45439075       -0.42133997        4.71729407
 C            2.28466764       -1.82793978        4.43840567
 C            2.55791870        0.48240758        3.59108261
 C            0.62651669        1.04378579        4.77233073
 C            1.49745263        1.46770602        3.70156654
 C           -0.77238980       -0.82086614        4.92882841
 C           -0.67404572        0.53203144        4.40130847
 C            0.18115087       -2.77812785        4.06574540
 C           -0.97194656       -1.90561166        3.98496604
 C            2.21185983       -2.24435279        3.04866556
 C            0.96322887       -2.95913841        2.85681876
 C            2.82867760       -0.01769591        2.31881157
 C            2.61479370       -1.37394759        2.03685720
 C            2.68424656        0.87562084        1.26325924
 C            0.92357786        1.89590254        2.51180488
 C            1.74409640        1.90245192        1.39896127
 C           -1.11550359        0.75868506        3.09884154
 C           -0.44080899        1.68389857        2.29339300
 C           -1.42894505       -1.58026361        2.71695307
 C           -1.80893368       -0.26363112        2.46372796
 C            0.32151204       -2.79725832        1.63221472
 C           -0.99597538       -2.34562943        1.63229704
 C            2.25976405       -1.71116864        0.72940926
 C            1.10207820       -2.47599275        0.52909063
 C            2.99284451        0.43260989       -0.01945840
 C            2.72429500       -0.90614151       -0.31086774
 C            2.97744982        1.38599236       -1.03326478
 C            1.26679041        2.50896014        0.25159253
 C            2.13780326        2.54697857       -0.82493304
 C           -0.94925141        1.92352580        1.00571774
 C           -0.11632023        2.48051718        0.02687431
 C           -2.36010223       -0.00513004        1.22073201
 C           -2.07818386        1.21161333        0.59640673
 C           -1.61004072       -2.09051012        0.40775389
 C           -2.58757060       -1.10573317        0.41102213
 C            0.48653291       -2.46092000       -0.72092496
 C           -0.90205433       -2.30738563       -0.78252105
 C            2.42303030       -1.29228905       -1.61406967
 C            1.26121350       -2.13419505       -1.82185633
 C            2.82354117        0.98179434       -2.41777878
 C            2.47952934       -0.32794311       -2.69930871
 C            1.65594494        2.99363845       -2.10544077
 C            2.14217849        2.05864922       -3.11061841
 C           -0.62305826        2.68603471       -1.26425879
 C            0.22816578        3.11796515       -2.28344148
 C           -2.60843656        1.42204705       -0.68094357
 C           -1.89150921        2.20062641       -1.60264945
 C           -3.31213335       -0.90334166       -0.74131295
 C           -3.52110369        0.46890082       -1.14144968
 C           -1.53240162       -1.98723017       -1.99773685
 C           -2.87087217       -1.58874296       -1.93383012
 C            0.62121080       -1.72505224       -3.05335978
 C            1.37678570       -0.61237657       -3.60833587
 C           -0.76323729       -1.70081845       -3.14039046
 C            1.02225402        1.75077131       -3.98147688
 C           -0.03206730        2.69974799       -3.64475613
 C            0.68816192        0.42002426       -4.24958722
 C           -2.32032346        2.29634165       -2.93468286
 C           -1.33119836        2.39253009       -3.99647936
 C           -3.90110477        0.42152470       -2.53703984
 C           -3.49233936       -0.88680417       -3.04017001
 C           -3.37113947        1.42374015       -3.42614215
 C           -1.31193163       -0.99662340       -4.21404753
 C           -0.58473352        0.14712611       -4.74702655
 C           -1.52964716        1.24434183       -4.85580931
 C           -2.72410849       -0.67572034       -4.23949981
 C           -2.85856885        0.72700617       -4.59451812
