   70
C70 / DATE: 7/ 1/2024 / Origin: Program Fullerene / C70 from database
 C            1.16132878       -0.12007671        4.58055318
 C            2.48621906       -0.32655499        4.03352770
 C            2.45262746       -1.56578202        3.26965164
 C            0.35123355       -1.26591644        4.19548894
 C            1.07160351       -1.99240920        3.17884534
 C           -0.96052682       -0.77781359        3.85932129
 C            0.42209194        1.07912242        4.22395409
 C           -0.94139607        0.67229088        3.95061924
 C            1.00939130        2.04570172        3.41913883
 C            3.07055302        0.69517143        3.18276438
 C            2.37302207        1.87498310        2.93368166
 C            3.17988634       -1.33926784        2.04144302
 C            3.72648938        0.00542667        2.08582610
 C            2.64244495       -1.78741179        0.84320073
 C            0.49167821       -2.13651273        1.91853321
 C            1.31499535       -2.24231535        0.79917716
 C           -1.63339276       -1.33204450        2.77892351
 C           -0.88395281       -1.92133094        1.74402637
 C           -2.82580070       -0.70476128        2.45933226
 C           -1.71122730        1.37297772        3.02698949
 C           -2.88427735        0.73956594        2.63516525
 C            0.22589093        2.65362371        2.35472984
 C           -1.06604733        2.20646194        2.09940584
 C            2.45399543        2.49640958        1.62121227
 C            1.11422983        2.90977312        1.23471965
 C            3.92981986        0.66912469        0.88208919
 C            3.29561092        1.96115885        0.65593667
 C            3.24910312       -1.35626205       -0.33265597
 C            3.82283426       -0.08829047       -0.35694996
 C            2.82155159       -1.90471786       -1.52979891
 C            0.75557522       -2.58426788       -0.42765648
 C            1.61834884       -2.71001058       -1.51298364
 C           -1.44308324       -2.05444684        0.45822548
 C           -0.62045191       -2.39706481       -0.63212324
 C           -3.48416398       -1.02467260        1.21902167
 C           -2.79568489       -1.74313481        0.24994556
 C           -3.63543179        1.28553482        1.52885479
 C           -4.20958839        0.16395319        0.81237301
 C           -1.56757836        2.32473105        0.79723017
 C           -2.91749308        2.09022415        0.56860046
 C            0.66961885        2.66611006       -0.06349637
 C           -0.68372537        2.38036952       -0.28597575
 C            2.88812232        2.01291894       -0.73810089
 C            3.42543520        0.83776108       -1.40295383
 C            1.60917963        2.44443949       -1.07396084
 C            2.73573356       -1.04510845       -2.69909847
 C            2.76712393        0.33792945       -2.52370344
 C            1.09194844       -2.70838175       -2.85653857
 C            1.76617607       -1.64791571       -3.59492955
 C           -1.16595194       -2.52055895       -1.92282452
 C           -0.32668333       -2.53217642       -3.03446880
 C           -3.30827712       -1.71852471       -1.04350289
 C           -2.49202879       -2.17463109       -2.14500578
 C           -4.20790468        0.50087130       -0.59253458
 C           -3.35669124        1.67760506       -0.75158245
 C           -4.04886986       -0.54084153       -1.49035315
 C           -1.15272706        2.17697768       -1.59113701
 C           -2.45726172        1.72411506       -1.81406505
 C            1.17312261        2.20722200       -2.36875226
 C            1.80032815        1.13961271       -3.13553740
 C           -0.24808136        2.18053237       -2.64805188
 C            0.74606879       -0.81645879       -4.20210554
 C           -0.51336961       -1.52682727       -4.06891433
 C            0.78178200        0.55698456       -3.99912918
 C           -0.45802861        1.28550685       -3.77317181
 C           -2.80473035       -1.33981971       -3.29399890
 C           -3.57176432       -0.20937371       -2.81395910
 C           -2.73934977        0.96828543       -2.95461497
 C           -1.70440938       -0.81660171       -4.08337427
 C           -1.67521318        0.62880854       -3.88449822
