   70
C70 / DATE: 7/ 1/2024 / Origin: Program Fullerene / C70 from database
 C            1.27175759       -0.01813058        4.31594212
 C            2.52564739       -0.32167425        3.66853849
 C            2.44688405       -1.68408263        3.16115735
 C            0.42402801       -1.19658590        4.22573332
 C            1.09151456       -2.15833930        3.37397566
 C           -0.90856532       -0.75866823        3.85437796
 C            0.50156858        1.10926355        3.83604577
 C           -0.88882232        0.69339883        3.75677077
 C            1.00767175        1.93982711        2.83923043
 C            2.96349650        0.51948874        2.57184152
 C            2.15769389        1.57049402        2.12266456
 C            2.97514985       -1.67531252        1.80754072
 C            3.56724242       -0.36795270        1.59572361
 C            2.22018111       -2.25113320        0.78885315
 C            0.39200593       -2.68484567        2.29514729
 C            1.09045410       -2.99538404        1.12607824
 C           -1.61872393       -1.48084025        2.90341288
 C           -1.00042294       -2.55398154        2.25253387
 C           -2.71262231       -0.86033065        2.30956036
 C           -1.72976421        1.33026826        2.84345434
 C           -2.73255969        0.59008688        2.21476708
 C            0.12105259        2.84925524        2.28101405
 C           -1.29869730        2.52121980        2.26088611
 C            0.44543686        3.49862179        1.02797928
 C            2.38846619        2.08680715        0.83951465
 C            1.56502284        3.08660878        0.31388036
 C            3.71159266        0.08968076        0.29989966
 C            3.30604491        1.44832136        0.00375959
 C            2.38008584       -1.80538577       -0.52760563
 C            3.22613111       -0.73452139       -0.79562407
 C            1.48391906       -2.22596705       -1.51152296
 C            0.44868781       -3.71695181        0.12983637
 C            0.67712729       -3.33411185       -1.25184759
 C           -1.70940191       -3.26127416        1.28621819
 C           -0.96441629       -4.00251412        0.28536462
 C           -3.27552844       -1.39592226        1.08226295
 C           -2.83029542       -2.62031974        0.61702020
 C           -3.15111711        0.93628118        0.86227533
 C           -3.41964676       -0.29587000        0.14440193
 C           -1.81694047        2.91290035        0.96095455
 C           -0.80844002        3.74254860        0.32817049
 C           -2.52455056        1.98497882        0.20332863
 C           -0.79893797        3.84755162       -1.05271066
 C            1.66229870        3.42412686       -1.03696030
 C            0.48351770        3.92162572       -1.72629384
 C            3.12881561        1.51543176       -1.43251377
 C            2.90279691        0.15609830       -1.89677494
 C            2.35830446        2.53610159       -1.95371918
 C            1.19390804       -1.38792308       -2.59650630
 C            1.79179242       -0.12365319       -2.68802675
 C            0.16050629       -1.72829791       -3.46440685
 C           -0.57096789       -3.51400026       -1.97805231
 C           -1.60689345       -3.79186323       -0.99903362
 C           -2.66028105       -2.80982492       -0.81232221
 C           -0.86980392       -2.63912375       -3.00908574
 C           -2.95691202       -0.43440097       -1.16006797
 C           -2.70665574       -1.71581643       -1.67507702
 C           -2.09169280       -1.85494914       -2.91677414
 C           -2.30617454        1.90553760       -1.17494780
 C           -1.64865842        2.95438089       -1.82347152
 C           -2.55532493        0.70948502       -1.86146943
 C            0.36842757        3.20679177       -2.98564863
 C            1.45406080        2.24345475       -3.05073794
 C            1.15143401        0.92116393       -3.37207780
 C           -0.99492186        2.72024422       -3.10180525
 C           -0.52152147       -0.67765010       -4.18758729
 C           -1.91438166       -0.69300301       -3.75920846
 C           -2.20586030        0.61046761       -3.20522206
 C           -0.04403738        0.68049658       -4.04498353
 C           -1.20118505        1.50759611       -3.73803088
