   70
C70 / DATE: 7/ 1/2024 / Origin: Program Fullerene / C70 from database
 C            1.16150286        0.08671631        4.36484644
 C            2.48193365       -0.19277885        3.84695291
 C            2.53448733       -1.61852177        3.60266588
 C            0.33939882       -1.09824515        4.14395714
 C            1.16500760       -2.08153124        3.48583033
 C           -0.87488971       -0.66459879        3.49077802
 C            0.43665483        1.20536640        3.80574707
 C           -0.93684130        0.77346452        3.64650874
 C            1.00401963        1.94300842        2.77139032
 C            2.89444419        0.46566290        2.61947003
 C            2.02270778        1.36031514        2.00699772
 C            3.40189852       -1.82641542        2.46761434
 C            3.57401938       -0.52949901        1.81409580
 C            3.12212452       -2.91439557        1.66025376
 C            0.75834989       -2.62590293        2.26847101
 C            1.72223758       -3.31913526        1.53694311
 C           -1.22732473       -1.20273558        2.25845233
 C           -0.36089538       -2.09329683        1.60288445
 C           -2.19473971       -0.52329563        1.51891978
 C           -1.72971560        1.48797919        2.76274275
 C           -2.56525635        0.77479234        1.90769969
 C            0.18374465        2.88888472        2.17663477
 C           -1.25272532        2.72382375        2.33121274
 C            0.41200473        3.24404634        0.79366178
 C            1.96730628        1.42165538        0.60737100
 C            1.16145301        2.38517424       -0.00565696
 C            3.49579495       -0.46547794        0.42320686
 C            2.61613030        0.45457386       -0.17601008
 C            3.67808168       -2.89596570        0.32813761
 C            3.89948595       -1.59870277       -0.28143554
 C            1.47549177       -3.64115286        0.14546595
 C            2.76190781       -3.61775831       -0.52907991
 C           -0.59985407       -2.41544109        0.25788502
 C            0.36693100       -3.09679482       -0.49502164
 C           -2.57702107       -1.02529120        0.27529212
 C           -1.75820592       -1.95155046       -0.37189737
 C           -3.62862353       -0.42956457       -0.41996778
 C           -3.45690790        1.50272003        1.12929148
 C           -4.13115204        0.85105343        0.02884168
 C           -1.89392225        3.37961029        1.20273502
 C           -0.83683258        3.79287989        0.28990713
 C           -3.06832421        2.83522810        0.69601182
 C           -1.06415666        3.77773993       -1.07650779
 C            0.85761487        2.27464200       -1.36311758
 C           -0.08661315        3.12928041       -1.93069812
 C            2.34297471        0.39211991       -1.55262698
 C            1.30965085        1.16649840       -2.07894849
 C            3.55965395       -1.73508167       -1.67698093
 C            2.84207152       -2.99600669       -1.83172826
 C            2.75913413       -0.70459072       -2.29862807
 C            0.39154950       -2.95713259       -1.88838061
 C            1.60517410       -2.68910928       -2.51384042
 C            1.77518092       -1.38265912       -3.11605934
 C           -1.90880936       -2.15639065       -1.74069849
 C           -0.74207614       -2.48317822       -2.52989059
 C           -3.59306281       -0.39346773       -1.87020308
 C           -2.69936385       -1.22322044       -2.52732250
 C           -4.11789320        1.76137825       -1.10628834
 C           -3.35476553        2.93992352       -0.72457981
 C           -2.38597964        3.44246764       -1.58728065
 C           -3.72464401        0.99794931       -2.27904264
 C           -0.77587007        2.71474522       -3.13361017
 C           -2.20634482        2.83426900       -2.89519888
 C           -2.81574077        1.54401284       -3.17963756
 C            0.57266614        0.67314833       -3.16839637
 C            0.62729412       -0.68688181       -3.46022128
 C           -0.56957042       -1.39961299       -3.48419958
 C           -1.82813872       -0.67489601       -3.55776270
 C           -0.51983410        1.38707113       -3.64544779
 C           -1.79398863        0.69807849       -3.77251029
