   70
C70 / DATE: 7/ 1/2024 / Origin: Program Fullerene / C70 from database
 C            1.39147353        0.04578055        4.57981408
 C            0.63473930       -1.15388325        4.28197650
 C            1.41838329       -1.98316418        3.38480934
 C            2.64267943       -0.03652580        3.85396347
 C            2.63368448       -1.25675061        3.06194957
 C            2.82029886        1.22153563        3.15743925
 C            0.65133282        1.17517185        4.04196480
 C            1.51446037        1.86313674        3.10326332
 C           -0.68131668       -0.74467687        3.83657435
 C           -0.62518725        0.68166771        3.56655123
 C           -1.32280677       -1.54516904        2.90397521
 C            0.74254705       -2.64563283        2.37017140
 C           -0.65140359       -2.67213549        2.42360416
 C            1.37108482       -2.80610477        1.13456693
 C            3.05884896       -1.18209368        1.73686494
 C            2.35646131       -1.89223862        0.75073036
 C            3.57738964        1.20211761        2.00036000
 C            3.84330810       -0.08767212        1.37696027
 C            3.20555969        2.09471249        0.92239888
 C            0.99698304        2.23812745        1.86367063
 C            1.87899353        2.51198614        0.81450479
 C           -1.11381003        1.13462657        2.34477374
 C           -0.36233369        2.04090106        1.58824046
 C           -2.28023754       -0.95107349        2.08872333
 C           -2.10738528        0.38505722        1.71307980
 C           -3.08713965       -1.78151773        1.32825226
 C           -1.32756192       -3.53306084        1.56784549
 C           -2.64918758       -3.14970443        1.10462902
 C            0.71593610       -3.53825738        0.14538356
 C           -0.60311709       -4.07222088        0.43194802
 C            0.69092948       -3.01166834       -1.20910752
 C            2.45275800       -1.52868867       -0.60122489
 C            1.43512943       -1.87777566       -1.48046391
 C            4.11250947        0.16639174       -0.02134700
 C            3.86432173        1.57968814       -0.25401534
 C            3.36499279       -0.57364366       -1.01340421
 C            3.16974798        1.69781006       -1.51023098
 C            2.96141790        0.36306405       -2.04560467
 C            1.36113204        2.84965540       -0.44089443
 C            2.10838258        2.58001131       -1.60273930
 C           -0.87720460        2.48717973        0.37364472
 C           -0.01314514        3.08562403       -0.54837758
 C           -2.66683701        0.86743492        0.52641734
 C           -2.13680340        2.03728347       -0.03477393
 C           -3.62965989       -1.29001037        0.08280708
 C           -3.53881006        0.06060580       -0.22325488
 C           -2.71730589       -3.41363962       -0.32379027
 C           -1.42437105       -3.89245925       -0.75397775
 C           -0.66994814       -3.09023647       -1.70179635
 C           -3.24520585       -2.22715819       -0.95752023
 C           -1.24892718       -1.95402038       -2.27009463
 C           -2.61807932       -1.70636921       -2.08478569
 C            0.95254426       -0.92869778       -2.38736198
 C            1.78503730        0.13511587       -2.76668716
 C           -0.41169672       -0.92666436       -2.72935548
 C            1.44292681        2.55004427       -2.81637517
 C            1.22722719        1.23791149       -3.41083947
 C           -0.51854841        3.58500455       -1.74554377
 C            0.22371241        3.30848086       -2.95344114
 C           -2.72919270        2.58991935       -1.16629231
 C           -1.92154636        3.39618870       -2.05947042
 C           -3.74493206        0.37481902       -1.56064116
 C           -3.14250190       -0.50792419       -2.54931823
 C           -3.54057606        1.73457565       -2.00001285
 C           -0.96441106        0.14587080       -3.43592769
 C           -0.14686616        1.18820902       -3.86198875
 C           -0.64668410        2.55600737       -3.83445458
 C           -2.00127372        2.79782678       -3.38817463
 C           -2.34480275        0.32553493       -3.41973122
 C           -2.89611704        1.66575983       -3.29883869
