   70
C70 / DATE: 7/ 1/2024 / Origin: Program Fullerene / C70 from database
 C            1.61529524        0.02981008        4.51271484
 C            0.81177010       -1.16697446        4.36041292
 C            1.36974784       -1.95655272        3.27408580
 C            2.66283322       -0.01575580        3.51101928
 C            2.52659744       -1.24948836        2.75887957
 C            2.62142878        1.23021968        2.77131026
 C            0.76608205        1.16851945        4.20663589
 C            1.38847842        1.90893720        3.13081046
 C           -0.57450531       -0.75449363        4.26494435
 C           -0.58153445        0.67905194        4.00987453
 C           -1.43369703       -1.55592304        3.52983540
 C            0.49732062       -2.55780326        2.37490454
 C           -0.86387576       -2.59420776        2.68477648
 C            0.90334501       -2.75083999        1.05281079
 C            2.72352892       -1.18941724        1.38479361
 C            1.98643758       -2.02541723        0.54032664
 C            2.96644702        1.19841419        1.42657740
 C            3.29284312       -0.03435295        0.85549303
 C            2.46387506        2.20141753        0.59951187
 C            0.59665145        2.40203299        2.10052538
 C            1.23203153        2.77962187        0.92020595
 C           -1.32924618        1.16629522        2.94071315
 C           -0.77993766        2.13136590        2.07986712
 C           -2.49243871       -0.92604401        2.76159277
 C           -2.45684470        0.44803455        2.54207179
 C           -1.83351631       -2.87986059        1.64075996
 C           -2.81104861       -1.80355434        1.64523127
 C            0.04664049       -3.41673372        0.18395317
 C           -1.38519269       -3.37377151        0.43100843
 C            0.24253508       -3.30099879       -1.24668901
 C            2.20900595       -1.96124843       -0.84363037
 C            1.31119569       -2.55798735       -1.73608734
 C            3.72213381       -0.06361905       -0.46242639
 C            3.19503420       -1.10039133       -1.33287768
 C            2.96160089        2.29496556       -0.69662423
 C            3.73538677        1.18034149       -1.21048359
 C            2.10060172        2.76363829       -1.76928967
 C            0.49161808        3.43339426       -0.05529642
 C            0.88201048        3.33252055       -1.45183750
 C           -1.56391061        2.65228987        1.04340834
 C           -0.95614239        3.36024622        0.00474736
 C           -3.26593041        0.96385279        1.54070250
 C           -2.86398309        2.18560016        0.87379087
 C           -3.23412415       -1.22700127        0.44782951
 C           -3.76777180        0.05598053        0.52055410
 C           -2.01731428       -2.90963896       -0.78777418
 C           -1.07360797       -3.15934618       -1.85778605
 C           -2.75080570       -1.72233959       -0.77555618
 C           -1.19715251       -2.44278078       -3.03441423
 C            1.28371960       -2.14979357       -3.06890758
 C            0.00824628       -2.08891685       -3.76099740
 C            3.06348913       -0.53345654       -2.66631376
 C            3.27486135        0.89818072       -2.55751449
 C            2.16154897        1.78708747       -2.84297121
 C            2.03336555       -0.97832487       -3.47613878
 C           -0.15079295       -0.73355485       -4.26570964
 C            0.98635288        1.24229127       -3.36134460
 C            1.06347191       -0.00990452       -3.96760452
 C           -0.29223047        2.93157412       -2.20258457
 C           -1.44045182        3.20882146       -1.36219032
 C           -0.25687922        1.76442466       -2.96710616
 C           -3.44510299        2.15803325       -0.45793197
 C           -3.96285400        0.81850033       -0.68890028
 C           -2.61727173        2.52044697       -1.59246941
 C           -2.87150485       -0.97246792       -1.95910865
 C           -2.08764348       -1.29477271       -3.06734504
 C           -1.40054519       -0.21627861       -3.76142974
 C           -1.44891948        1.06161688       -3.21348291
 C           -3.38336796        0.32083641       -1.91333333
 C           -2.60738779        1.39564893       -2.51252212
