   70
C70 / DATE: 7/ 1/2024 / Origin: Program Fullerene / C70 from database
 C            1.21969982       -0.14624432        4.89705150
 C            2.51880573       -0.45382134        4.34413373
 C            2.37767724       -1.68418825        3.57189324
 C            0.37493181       -1.30383998        4.66054861
 C            0.97221883       -2.03383414        3.56173003
 C           -0.97056864       -0.80829738        4.49986559
 C            0.49564672        1.00072746        4.37614958
 C           -0.89862052        0.64792974        4.48638193
 C            0.95109338        1.63710172        3.21606372
 C            3.13522992        0.53013694        3.47971874
 C            2.31066729        1.59163503        2.91873492
 C            3.04538588       -1.48187692        2.30383347
 C            3.70539216       -0.19562629        2.36398024
 C            2.38455069       -1.80173078        1.12405172
 C            0.30556968       -2.10208777        2.33639237
 C            1.04916916       -2.21342096        1.15686071
 C           -1.71292832       -1.19304075        3.31735836
 C           -1.07081085       -1.84533955        2.26521821
 C           -1.79918258        1.10420961        3.45713256
 C           -2.54311374       -0.05456407        2.99817221
 C            0.03736148        2.06371579        2.23457908
 C           -1.34202946        1.99600088        2.49520911
 C            0.49795892        2.42404255        0.95100317
 C            2.74585830        1.78066312        1.55082000
 C            3.59631379        0.65776895        1.20045262
 C            1.83673343        2.21346595        0.59367301
 C            2.86633100       -1.24565505       -0.05648170
 C            3.36011258        0.06466092       -0.02910009
 C            2.36792373       -1.73205133       -1.26137775
 C            0.38729235       -2.39526014       -0.05674010
 C            1.13021069       -2.38687563       -1.23858041
 C           -1.69544663       -1.81619568        1.01692600
 C           -1.00274075       -2.25891481       -0.11251891
 C           -3.09361488        0.01006773        1.72969073
 C           -2.86084667       -1.05546882        0.86158295
 C           -2.24228238        2.28016801        1.47806877
 C           -3.25044678        1.27700823        1.17805896
 C           -0.40585061        2.85783918       -0.02990022
 C           -1.76814988        2.80718570        0.21925716
 C            0.00967846        2.97331662       -1.35480393
 C            2.15406200        1.98676112       -0.74794355
 C            2.99052127        0.91055509       -1.06560836
 C            1.34790467        2.55810752       -1.72207659
 C            2.77901975       -1.07523459       -2.41853299
 C            2.96689828        0.35696369       -2.33884033
 C            2.14953380       -1.37047685       -3.68630020
 C            0.49833444       -2.74362176       -2.42598842
 C            1.02902267       -2.28280511       -3.69635022
 C           -1.67036299       -2.36135328       -1.33874639
 C           -0.94807554       -2.65331139       -2.49774928
 C           -3.49879560       -1.03980726       -0.37176667
 C           -2.94688576       -1.81750663       -1.46377457
 C           -3.59986049        1.39438013       -0.22360945
 C           -2.66825507        2.33849479       -0.82770752
 C           -3.93478718        0.24044970       -0.91409095
 C           -0.89345255        2.56880662       -2.42493822
 C           -2.16461950        2.10213499       -2.10779709
 C            1.29166250        1.98324866       -3.05564172
 C            2.16472042        0.96128157       -3.38582646
 C            1.70583798       -0.10597864       -4.25675902
 C           -0.10850728        1.89062816       -3.44579650
 C           -0.05232230       -1.63219872       -4.41243598
 C           -1.29007143       -1.97846331       -3.74739868
 C            0.28748479       -0.22616689       -4.54025127
 C           -0.60047259        0.72952283       -4.04523597
 C           -3.30264449       -1.13465873       -2.69378812
 C           -3.71752737        0.21088154       -2.34405225
 C           -2.75612745        1.13386020       -2.91916811
 C           -2.30031423       -1.03136933       -3.73149176
 C           -1.93710109        0.37756576       -3.85542325
