   70
C70 / DATE: 7/ 1/2024 / Origin: Program Fullerene / C70 from database
 C            1.54158733        0.13805962        5.04859127
 C            0.76589633       -1.03804168        4.71056829
 C            1.65358965       -1.92293061        3.99497182
 C            2.69887652        0.16353000        4.16481507
 C            2.80895477       -1.14171353        3.56659932
 C            2.55277847        1.31328921        3.29452771
 C            0.73529023        1.29622218        4.72637545
 C            1.56265346        2.17154895        3.92326594
 C           -0.45414704       -0.60350621        4.04614224
 C           -0.52006960        0.84303191        4.14470421
 C           -0.83726615       -1.21364800        2.85581882
 C            1.14072958       -2.58015023        2.81542336
 C           -0.18166819       -2.37483268        2.42799920
 C            2.87537279       -1.24189361        2.12104699
 C            2.14857045       -2.44398650        1.78778939
 C            2.52630564        1.15416872        1.89993730
 C            2.67745428       -0.11638985        1.32114235
 C            2.03863138        2.21269619        1.12539673
 C            0.90279963        3.06917020        3.11345710
 C            1.42419112        3.28278305        1.78352657
 C           -1.03733542        1.58369790        3.08229574
 C           -0.52386455        2.86835813        2.91728701
 C           -1.60315071       -0.48720774        1.94007275
 C           -1.57982096        0.91525664        1.97022847
 C           -2.12023277       -1.15127911        0.82482457
 C           -0.53868952       -2.90078421        1.19112197
 C           -1.73263473       -2.47695570        0.61681752
 C            1.70499559       -2.60519332        0.49100472
 C            0.50322063       -3.27576028        0.34064381
 C            2.29094966       -0.32200123       -0.00695891
 C            1.99792115       -1.61927431       -0.45071560
 C            1.83902242        2.04389136       -0.25404639
 C            1.99289370        0.76827073       -0.82034441
 C            1.17127003        3.04875754       -0.97359107
 C            0.37983454        4.01549032        1.10934685
 C           -0.87470779        3.62632876        1.73988520
 C            0.22326475        3.80735209       -0.30307860
 C           -1.95958664        1.63513567        0.82484050
 C           -1.67574970        2.98841380        0.72024225
 C           -1.17094909        3.48159599       -0.54094618
 C           -2.61889939       -0.39939612       -0.24234942
 C           -2.28626539        0.94436729       -0.33813712
 C           -3.16379418       -1.03612711       -1.34686547
 C           -2.18339166       -3.16009314       -0.50771813
 C           -3.03915801       -2.47377117       -1.45442040
 C            0.19448932       -3.71042008       -0.93359545
 C           -1.20157704       -3.90916082       -1.26720431
 C            1.52144704       -1.81516993       -1.75191818
 C            0.81161524       -2.99224895       -2.03303449
 C            1.72062488        0.55984626       -2.17513731
 C            1.44396883       -0.73691583       -2.63604811
 C            0.90113972        2.84228491       -2.31630464
 C            1.42870502        1.66694668       -2.96569577
 C           -1.44256374        2.77224949       -1.70102477
 C           -2.11479128        1.54497310       -1.60004584
 C           -0.49657353        2.91419224       -2.70726751
 C           -2.93399939       -0.46729744       -2.66195846
 C           -2.33555454        0.78866707       -2.76384832
 C           -2.57008728       -2.78546236       -2.79563924
 C           -1.36969604       -3.58818381       -2.67164527
 C           -0.10916538       -3.04601723       -3.15709352
 C           -2.49105202       -1.54485022       -3.54026186
 C            0.86360021       -0.94057382       -3.89269067
 C           -0.12645552       -1.98799303       -4.05100617
 C           -1.39217018       -1.33058004       -4.36365121
 C            0.64041023        1.51257888       -4.17295945
 C           -0.64482796        2.14593365       -3.91603317
 C           -1.64704826        1.10515281       -3.93940965
 C            0.37008366        0.18197320       -4.65704095
 C           -1.07619459        0.03359538       -4.73102446
