   70
C70 / DATE: 7/ 1/2024 / Origin: Program Fullerene / C70 from database
 C            1.15733093       -0.07778209        4.54241308
 C            2.53715771       -0.30713034        4.16035470
 C            2.61385391       -1.63600991        3.57881014
 C            0.38091238       -1.24003916        4.13145051
 C            1.25400171       -2.12017888        3.39406814
 C           -0.81682265       -0.76475375        3.48149441
 C            0.47296243        1.10433186        4.04988395
 C           -0.83062956        0.68135963        3.57970656
 C            1.17141971        2.05777544        3.32330815
 C            3.18066654        0.61507951        3.24140371
 C            2.54010913        1.80001885        2.88977191
 C            3.48976100       -1.56964444        2.42169700
 C            3.85387229       -0.17380680        2.22067839
 C            3.17694920       -2.35746839        1.32309731
 C            0.87022475       -2.56860239        2.13236995
 C            1.87307346       -3.00106561        1.27678378
 C           -1.23040056       -1.33815105        2.28177554
 C           -0.38732827       -2.22976535        1.60059086
 C           -2.21775708       -0.66386270        1.56622587
 C           -1.46409970        1.37602688        2.55969909
 C           -2.43972519        0.69052110        1.85042134
 C            0.49040581        2.76658615        2.25311200
 C           -0.82517888        2.44930421        1.92488444
 C            2.68804439        2.33167554        1.54424938
 C            1.43269554        2.95954195        1.17040456
 C            3.98279690        0.33053650        0.92902419
 C            3.40093668        1.61945757        0.59109822
 C            3.47024186       -1.87797045       -0.01848991
 C            3.80857178       -0.54953061       -0.21738496
 C            1.56190807       -3.24171795       -0.10811195
 C            2.51718480       -2.50122277       -0.91536646
 C           -0.72492198       -2.62903270        0.29400999
 C            0.24182353       -3.24243452       -0.52284874
 C           -2.69326335       -1.21771279        0.37929027
 C           -1.94505566       -2.20576547       -0.26310785
 C           -3.74961555       -0.59939826       -0.29030429
 C           -3.25301159        1.44269130        1.02164386
 C           -4.08372637        0.76583627        0.05256520
 C           -1.31414098        2.87061418        0.68133604
 C           -2.64943601        2.59457866        0.38404419
 C            0.95582106        2.85352431       -0.13076051
 C           -0.40003534        3.10105072       -0.35742428
 C            2.88583680        1.53554403       -0.76379851
 C            3.14305838        0.20148023       -1.27169613
 C            1.68153674        2.13935182       -1.09198522
 C            2.03156672       -1.80804455       -2.02185741
 C            2.17487677       -0.41526922       -2.06937284
 C            0.06483459       -3.23329098       -1.89846370
 C            0.95946770       -2.39568250       -2.68268130
 C           -2.28948915       -2.58024979       -1.56413179
 C           -1.26421530       -3.09837093       -2.43578992
 C           -3.85420076       -0.71651997       -1.73339685
 C           -3.11191223       -1.69604121       -2.37244364
 C           -4.07144047        1.55195741       -1.16931426
 C           -3.12661987        2.64407308       -0.98676336
 C           -3.90040783        0.63226727       -2.28218056
 C           -0.83620214        3.15974746       -1.67923124
 C           -2.23675206        2.95340720       -2.00238018
 C            1.03052252        1.71404488       -2.24377336
 C            1.16699692        0.37535770       -2.64719850
 C           -0.04357699        2.47510499       -2.68173150
 C            0.13655859       -1.59739600       -3.56366074
 C           -1.17910237       -2.21549197       -3.58692398
 C           -2.34955970       -1.35857088       -3.56768523
 C            0.22609971       -0.21296314       -3.50632942
 C           -3.05684548        0.98144880       -3.33098254
 C           -2.30061761        2.22188245       -3.25848050
 C           -0.93782347        1.93863224       -3.67952625
 C           -2.19247549       -0.02523426       -3.92350427
 C           -0.84769135        0.53136159       -3.99258459
