   70
C70 / DATE: 7/ 1/2024 / Origin: Program Fullerene / C70 from database
 C            1.01136396       -0.13931036        4.68172140
 C            2.32022473       -0.47206067        4.17128573
 C            2.20281406       -1.73669201        3.45058226
 C            0.17869498       -1.30894723        4.47646569
 C            0.79904593       -2.07689719        3.41397325
 C           -1.16441217       -0.82396488        4.26876038
 C            0.30736718        0.97784267        4.08085384
 C           -1.09128636        0.62618018        4.11950980
 C            0.83475029        1.56561217        2.93166318
 C            2.95412777        0.45612303        3.26032488
 C            2.22071504        1.52537623        2.73827570
 C            2.91435923       -1.57729702        2.19916190
 C            3.70814256       -0.37199492        2.34301058
 C            2.24855316       -1.79152077        0.99422686
 C            0.15057844       -2.17256611        2.18243041
 C            0.88938022       -2.13076573        0.98909459
 C           -1.89772137       -1.31197701        3.12187232
 C           -1.24410784       -2.05396299        2.13719282
 C           -1.92890477        0.97784237        2.99325038
 C           -2.70960407       -0.20139242        2.68602643
 C           -0.01146556        1.92857028        1.86561449
 C           -1.39578101        1.69443872        1.92478510
 C            0.54361611        2.41662157        0.68061024
 C            2.77343220        2.21664037        1.66745633
 C            1.89575325        2.71515862        0.62388853
 C            4.19762710        0.22474234        1.19744506
 C            3.94238225        1.64452920        1.02087075
 C            2.83476524       -1.30308904       -0.17283209
 C            3.90423229       -0.40378315       -0.07729529
 C            2.18727104       -1.46287207       -1.39849495
 C            0.22063219       -2.26888410       -0.22843466
 C            0.86656399       -1.93654937       -1.42966540
 C           -1.89569872       -2.18136619        0.91162055
 C           -1.15023467       -2.52453919       -0.21550894
 C           -3.24711646       -0.28474451        1.41991606
 C           -3.09896222       -1.48793751        0.74393402
 C           -2.14971234        1.72369968        0.74339241
 C           -3.25884482        0.87055722        0.65388788
 C           -0.19036955        2.35689021       -0.49989280
 C           -1.57289258        2.23040297       -0.42452799
 C            0.46321388        2.27379442       -1.74014080
 C            2.58791712        2.59842105       -0.64799971
 C            3.83664547        1.89545599       -0.40309711
 C            4.05475960        0.63170109       -1.08316253
 C            1.86373218        2.26277437       -1.78873164
 C            2.71653375       -0.80101748       -2.50679826
 C            3.42257031        0.44560657       -2.29548298
 C            2.50405869        1.47510309       -2.74556138
 C            1.88597472       -0.57628713       -3.66734765
 C            1.72461590        0.86674471       -3.80062089
 C            0.16053267       -1.97346216       -2.64473012
 C            0.56717133       -1.15861881       -3.69244989
 C           -1.81184949       -2.75044055       -1.41410087
 C           -1.17638329       -2.34674292       -2.64955567
 C           -3.81789549       -1.64503219       -0.43398771
 C           -3.21997414       -2.40422245       -1.51327967
 C           -4.02526826        0.84304229       -0.50495904
 C           -4.43480600       -0.45926335       -1.01206697
 C           -2.31608705        2.28295591       -1.59608019
 C           -3.62032002        1.65015589       -1.63478975
 C           -0.26780958        1.95988888       -2.89501165
 C            0.30596856        1.13481738       -3.85412640
 C           -0.34533420       -0.12705826       -4.15292769
 C           -1.65483614        1.98967197       -2.85091837
 C           -2.11986561       -1.50737723       -3.37617746
 C           -3.41901977       -1.66118878       -2.74855054
 C           -4.20195293       -0.48068367       -2.44492142
 C           -3.68133887        0.81617623       -2.82691120
 C           -1.69367564       -0.26083686       -3.84349281
 C           -2.38655639        0.89780859       -3.47847136
