   70
C70 / DATE: 7/ 1/2024 / Origin: Program Fullerene / C70 from database
 C            1.32615784        0.05678792        5.19022937
 C            0.55270225       -1.16302956        5.05219215
 C            1.49322380       -2.21672826        4.74500200
 C            2.59752580       -0.16005507        4.51818590
 C            2.74065320       -1.58177291        4.32859609
 C            2.63228283        0.70376573        3.35189990
 C            0.62676856        1.09754965        4.46438796
 C            1.54961774        1.65844067        3.50113844
 C           -0.53722603       -0.89470910        4.12274420
 C           -0.60829049        0.54422018        3.94548068
 C           -0.73726330       -1.71804106        3.01139218
 C            1.13249732       -3.17457410        3.72231319
 C           -0.03272547       -2.91860903        2.89136462
 C            3.05166197       -2.07295034        3.00335003
 C            2.26651834       -3.27826401        2.82464545
 C            2.88186946        0.17586747        2.07786303
 C            3.17074604       -1.19146961        1.92276516
 C            2.52039850        0.95680951        0.96394875
 C            1.00961566        2.17843397        2.34001652
 C            1.79086492        2.12667138        1.19635147
 C           -1.05232867        1.03310855        2.72529508
 C           -0.37349097        2.11428314        2.16859481
 C           -1.37562463       -1.19063367        1.88296632
 C           -1.70495363        0.16690095        1.85426225
 C           -1.36417005       -1.91372529        0.68798016
 C            0.29712825       -3.40739711        1.56539222
 C            1.74602413       -3.55158418        1.50231087
 C           -0.36186203       -2.86108223        0.47050374
 C            3.15404662       -1.74819125        0.64723403
 C            2.40339694       -2.97946098        0.42604155
 C            2.56962401        0.41987690       -0.33173859
 C            2.95197829       -0.89727128       -0.51062975
 C            1.94307204        1.08323359       -1.39296973
 C            1.35709704        2.88987976        0.12493118
 C            1.57983622        2.40675092       -1.22138784
 C           -0.89865799        2.67682333        1.01077014
 C           -0.01477256        3.35216347        0.17344999
 C           -2.23885658        0.71364579        0.68905893
 C           -2.01627487        2.06900747        0.43840227
 C           -2.04691498       -1.41655872       -0.42033736
 C           -2.58914420       -0.12993122       -0.36767694
 C           -1.73173951       -1.96040072       -1.66124131
 C            0.27278607       -2.88524600       -0.77155196
 C            1.66229796       -2.80339102       -0.80311410
 C            2.25769034       -1.68585527       -1.50646192
 C           -0.41899077       -2.37821586       -1.86569488
 C            1.41066542        0.35255665       -2.46636921
 C            1.45808614       -1.04449937       -2.43806853
 C            0.32828341       -1.73280557       -2.85133151
 C            0.53305875        0.96157562       -3.38300153
 C            0.54421351        2.98001679       -2.06067309
 C           -0.41749278        3.64092310       -1.18503147
 C            0.07348253        2.27205437       -3.16266404
 C           -2.58207049        2.64633161       -0.69212676
 C           -1.76371832        3.54568895       -1.49554925
 C           -3.17753908        0.41410870       -1.51521496
 C           -3.32434339        1.80044347       -1.60834923
 C           -2.47034509       -1.56966077       -2.76884986
 C           -3.29870407       -0.38297901       -2.65669362
 C           -0.33417126       -1.25361974       -3.96565768
 C           -0.10943883        0.13654082       -4.31607717
 C           -1.76262918       -1.47591858       -4.03026455
 C           -3.36185680        0.22731329       -3.97856611
 C           -1.29696079        0.59322679       -5.01524375
 C           -2.34217114       -0.39524385       -4.80191975
 C           -1.12114704        2.71594461       -3.74116586
 C           -2.11532688        3.32860617       -2.88243622
 C           -3.27655191        2.46042432       -2.90291798
 C           -1.85053980        1.87822942       -4.66879833
 C           -3.17757834        1.65566974       -4.10128574
