   70
C70 / DATE: 7/ 1/2024 / Origin: Program Fullerene / C70 from database
 C            1.61069044        0.06212809        4.82497509
 C            0.81252878       -1.14239530        4.68474581
 C            1.63831062       -2.11649201        4.01223500
 C            2.72532717       -0.04457749        3.89785185
 C            2.80761062       -1.42269151        3.48291639
 C            2.55139104        0.97243045        2.88010127
 C            0.79235368        1.17759018        4.39358976
 C            1.49372231        1.86132356        3.32549960
 C           -0.45478639       -0.77240875        4.07569451
 C           -0.53651737        0.67849200        4.09866489
 C           -0.90738337       -1.45616744        2.94274004
 C            1.05966468       -2.85840917        2.91381127
 C           -0.26600744       -2.63896075        2.54133568
 C            2.87289495       -1.71877459        2.06393874
 C            2.05968745       -2.89748767        1.86472030
 C            2.60213845        0.63521710        1.52673756
 C            2.78374863       -0.69595588        1.11859893
 C            2.09349907        1.55322326        0.61351895
 C            0.71922092        2.47823109        2.35359368
 C            1.22376571        2.55542077        1.05962632
 C           -1.23510279        1.30949163        3.08104199
 C           -0.66372974        2.44621317        2.50637709
 C           -1.78124677       -0.79551125        2.06618927
 C           -2.10106678        0.54442030        2.30398418
 C           -2.13926683       -1.38578394        0.85054024
 C           -0.68139646       -3.27119377        1.37526910
 C           -1.73499400       -2.67888906        0.57601455
 C            1.62298520       -3.17444658        0.58103775
 C            0.34792477       -3.71370539        0.45030083
 C            2.46658140       -1.05870908       -0.19743253
 C            2.10855415       -2.38741733       -0.46219434
 C            2.17502939        1.26902348       -0.74359880
 C            2.21827496       -0.06292188       -1.15172374
 C            1.82986884        2.26166071       -1.64806357
 C            0.52813746        3.32332935        0.12648528
 C            0.97819201        3.34574038       -1.18968852
 C           -1.43006622        3.17907292        1.61117414
 C           -0.78836853        3.69993643        0.41248390
 C           -2.94117314        1.21358607        1.41943226
 C           -2.71498877        2.63275246        1.21547306
 C           -2.63970295       -0.60182494       -0.18648963
 C           -3.21585168        0.62117864        0.12166856
 C           -2.30447141       -0.89895304       -1.51388173
 C           -1.51445155       -3.06855767       -0.80685981
 C           -0.24478539       -3.78291699       -0.86879736
 C           -1.84441272       -2.18597998       -1.83635263
 C            1.77772702       -2.75898494       -1.75950730
 C            0.58032736       -3.56614779       -1.96150441
 C            1.86323268       -0.41339257       -2.46151021
 C            1.81467327       -1.76140168       -2.81061231
 C            1.41854517        1.89541323       -2.98925347
 C            1.34567976        0.55175167       -3.33804438
 C            0.03846624        3.65378480       -2.25038077
 C            0.31661042        2.76755101       -3.36596089
 C           -1.79058329        3.72041052       -0.64643580
 C           -2.91506526        2.92612417       -0.19095421
 C           -3.20141405        1.67749839       -0.87254149
 C           -1.37988596        3.57535315       -1.96192974
 C           -2.36753320        0.11191613       -2.48967189
 C           -0.93728494        2.15899196       -3.77498108
 C           -2.59865070        1.43132844       -2.09894969
 C           -1.91582039        2.46922446       -2.74352777
 C            0.38729460        0.18737437       -4.28665598
 C           -1.83264520       -0.10191006       -3.75545093
 C           -0.89254977        0.86964375       -4.27691362
 C           -1.31871183       -2.44566312       -3.10103717
 C           -0.03831206       -3.12214964       -3.19193177
 C            0.88389059       -2.20292729       -3.83091410
 C           -1.30387654       -1.40332165       -4.10014082
 C            0.08355371       -1.20979795       -4.50847537
