   70
C70 / DATE: 7/ 1/2024 / Origin: Program Fullerene / C70 from database
 C            0.88124149       -0.15010828        5.12073419
 C            2.18311686       -0.34927956        4.50713191
 C            2.12567532       -1.57156688        3.72538563
 C            0.04394816       -1.28385100        4.76359161
 C            0.76481952       -2.07423482        3.78454862
 C           -1.26476399       -0.77890565        4.41342166
 C            0.13594811        1.06337996        4.82451447
 C           -1.21117696        0.67409750        4.44564957
 C            0.75208007        2.09364863        4.12452030
 C            2.72320491        0.69303896        3.65611144
 C            2.13217761        1.94873038        3.67167174
 C            2.70282585       -1.30277496        2.41531995
 C            3.09067423        0.09266673        2.37643253
 C            2.08611004       -1.84790216        1.29806621
 C            0.15453859       -2.42362122        2.58373747
 C            0.98499966       -2.67738652        1.49576857
 C           -1.83443809       -1.16362188        3.13792954
 C           -1.18723039       -2.09452764        2.33434700
 C           -1.76661517        1.16612871        3.19191166
 C           -2.34469201        0.03028967        2.49976612
 C            0.01905840        2.76059375        3.05992031
 C           -1.06439649        2.11835026        2.45752470
 C            2.29106518        2.79356281        2.50688768
 C            1.00415662        3.41657627        2.23383093
 C            2.91508478        0.81345096        1.19358103
 C            2.74736866        2.19225086        1.26576797
 C            2.24117391       -1.21771997        0.05997855
 C            2.55231115        0.14420482        0.01492349
 C            1.73958035       -1.85350836       -1.07729435
 C            0.42712244       -3.29261348        0.39271029
 C            1.01263441       -3.02888737       -0.90397239
 C           -1.66150873       -2.24781086        1.03102440
 C           -1.00543777       -3.16724334        0.22723511
 C           -2.39152652        0.04732387        1.11417716
 C           -2.31197638       -1.16362964        0.42471267
 C           -1.23140249        2.16452829        1.06338418
 C           -2.06309958        1.22114370        0.44117355
 C            0.81672767        3.39904465        0.80419108
 C            2.02209599        2.85837386        0.21108733
 C           -0.39442214        2.96821339        0.27508282
 C            2.24455684        0.88410232       -1.13436752
 C            1.86458630        2.22298822       -1.00395011
 C            1.62984045       -1.15592429       -2.28459436
 C            1.89414527        0.21847354       -2.31922158
 C            1.02962430       -1.78641371       -3.38293913
 C           -0.00340207       -3.38322781       -1.86968689
 C           -1.27724048       -3.19018332       -1.19299556
 C            0.12311477       -2.90353402       -3.15943176
 C           -2.50317506       -1.14510719       -0.96032893
 C           -2.17574083       -2.27488626       -1.72274391
 C           -2.23492762        1.25412227       -0.94189299
 C           -2.67613322        0.09427542       -1.58574252
 C           -0.43121357        2.80216790       -1.10763379
 C            0.79302981        2.64845057       -1.76623118
 C           -1.56607504        2.23393744       -1.67418096
 C            1.42071484        0.98976769       -3.39000373
 C            0.79556135        2.26437522       -3.09152746
 C            0.48262326       -0.99638430       -4.47413960
 C            0.66571719        0.37758554       -4.47036960
 C           -1.10157735       -2.61568696       -3.88312460
 C           -2.26852180       -2.21958937       -3.11096791
 C           -0.81492730       -1.55707793       -4.82902894
 C           -3.00269797        0.14790114       -2.93520067
 C           -2.83057041       -1.04241251       -3.74008392
 C           -1.98437675       -0.69701441       -4.87364244
 C           -1.67648192        2.24830926       -3.06206562
 C           -0.44862211        2.33766833       -3.82579894
 C           -0.44440243        1.26454452       -4.79980631
 C           -2.52496017        1.26987910       -3.71586137
 C           -1.79552155        0.73848918       -4.85892444
