   70
C70 / DATE: 7/ 1/2024 / Origin: Program Fullerene / C70 from database
 C            1.19501070        0.03676377        5.16773057
 C            0.43057130       -1.15022064        4.82911466
 C            1.30672820       -2.04372685        4.11538753
 C            2.45092572       -0.02494121        4.43672251
 C            2.54292522       -1.32622763        3.82324329
 C            2.51426730        1.13500043        3.57722579
 C            0.45775189        1.19272891        4.68362463
 C            1.33520972        1.94675130        3.82973844
 C           -0.78645269       -0.72203040        4.17223373
 C           -0.78410105        0.73340708        4.11682913
 C           -1.27458355       -1.41925526        3.06679671
 C            0.83807854       -2.60708771        2.86747844
 C           -0.46383038       -2.36307755        2.40911730
 C            2.76450684       -1.40397795        2.38792630
 C            1.92656938       -2.48092472        1.91890726
 C            2.93844265        1.00767597        2.25291238
 C            2.84421421       -0.24138368        1.61742540
 C            2.81788930        2.15356149        1.48151669
 C            0.80346600        2.62315906        2.74265234
 C            1.75249064        3.07667539        1.84092091
 C           -1.27366559        1.34576269        2.96499132
 C           -0.46721485        2.25248790        2.24888926
 C           -2.28634603       -0.78958444        2.35580621
 C           -2.28210357        0.66482916        2.29617781
 C           -2.67015697       -1.28480753        1.05400465
 C           -0.73042180       -2.70651794        1.07289344
 C           -1.90272581       -2.26351477        0.44184979
 C            1.58463006       -2.51863861        0.58641014
 C            0.36094773       -3.08339614        0.28559329
 C            2.51637606       -0.32337198        0.24949473
 C            2.06954419       -1.53714559       -0.27919885
 C            2.81183380        2.04628387        0.03930968
 C            2.49661989        0.82372731       -0.54716973
 C            1.31410568        3.73329470        0.64185097
 C            2.15192534        3.23883279       -0.43722931
 C           -0.85128039        2.64961260        0.94988928
 C           -0.06092732        3.54741134        0.24162768
 C           -2.64976039        1.05249724        0.95272790
 C           -3.09487153       -0.14500037        0.26649466
 C           -1.86456650        1.96726075        0.26591186
 C           -2.94197787       -0.20990438       -1.10513083
 C           -2.04822596       -2.44822893       -0.93781967
 C           -2.68373764       -1.44841139       -1.69179088
 C            0.16067052       -3.43155571       -1.03165938
 C           -1.17315428       -3.33053417       -1.56336109
 C            1.67684060       -1.61791779       -1.61926994
 C            1.02650077       -2.79248917       -2.00227570
 C            1.87593848        0.79397828       -1.81091188
 C            1.46822351       -0.43854950       -2.35317714
 C            1.30937901        3.11320788       -1.59190873
 C           -0.04363973        3.47571665       -1.20129636
 C            1.44794869        1.99803922       -2.40205775
 C           -1.91819632        1.97998795       -1.13842712
 C           -2.62101066        0.95518942       -1.79863641
 C           -1.07234564        2.82991122       -1.86990161
 C           -2.69419282        0.93855050       -3.18977334
 C           -2.77735904       -1.55908033       -3.07873185
 C           -2.82080288       -0.34114206       -3.87060787
 C           -1.01824683       -3.30989196       -3.00385717
 C            0.34612340       -2.86619831       -3.27260377
 C           -1.90745380       -2.48039916       -3.78178203
 C            0.78462437       -0.47594541       -3.58572378
 C           -1.75357124       -0.42311116       -4.86224299
 C            0.25912978       -1.67336878       -4.07524073
 C           -1.07274396       -1.68401131       -4.66152413
 C            0.54054601        1.94434705       -3.44553808
 C           -0.78194253        2.49280107       -3.18611845
 C           -1.73514841        1.71505820       -3.93705047
 C            0.35768556        0.71259915       -4.16664227
 C           -0.97188303        0.78846013       -4.75276737
