   70
C70 / DATE: 7/ 1/2024 / Origin: Program Fullerene / C70 from database
 C            1.65587038       -0.01967033        4.63426340
 C            0.79763857       -1.18177772        4.73698676
 C            1.34739050       -2.20498628        3.86626809
 C            2.56318927       -0.24143194        3.51876281
 C            2.25833239       -1.53539633        2.94983142
 C            2.48197912        0.91720085        2.65765138
 C            0.81526555        1.10931040        4.28638117
 C            1.46615472        1.79860654        3.19924476
 C           -0.57611378       -0.75134750        4.51812609
 C           -0.52773737        0.62278888        4.05088688
 C           -1.44411370       -1.63746327        3.90069190
 C            0.47415050       -3.14863950        3.35360405
 C           -0.95068080       -2.96900205        3.59759909
 C            0.61313448       -3.54262224        1.96355883
 C            2.03773524       -1.63281248        1.57643879
 C            1.33456316       -2.73130857        1.07990514
 C            2.49231560        0.74518810        1.27455060
 C            2.29825208       -0.53825147        0.74054828
 C            2.12836328        1.85246263        0.49795953
 C            0.67591413        2.44299541        2.26788780
 C            1.31054411        2.81600292        1.09707942
 C           -1.14622977        0.97465664        2.85078969
 C           -0.67512573        2.08840640        2.15894245
 C           -2.20681923       -1.18696113        2.74430273
 C           -1.90809069        0.03453992        2.15552372
 C           -1.65919177       -3.44107859        2.42585275
 C           -0.68044311       -4.06033308        1.55338721
 C           -2.44334055       -2.33680920        1.89275057
 C           -0.96267189       -4.06971673        0.20382610
 C            1.09065478       -2.84153093       -0.29118811
 C            0.10731760       -3.73958395       -0.71142206
 C            2.10401966       -0.66632868       -0.63361787
 C            1.53146088       -1.83292428       -1.16246076
 C            2.13819484        1.72912041       -0.89313762
 C            2.28136024        0.45253223       -1.44515613
 C            1.70591003        2.80349975       -1.68496510
 C            0.61458597        3.70190794        0.29869134
 C            0.98049938        3.83134315       -1.08986720
 C           -1.34406226        2.48103201        1.00021004
 C           -0.82948887        3.59679415        0.34968547
 C           -2.15357478        0.21972044        0.79210896
 C           -1.97878748        1.49007147        0.23691840
 C           -2.47513445       -2.17589447        0.50963611
 C           -2.09166612       -3.27740738       -0.25127549
 C           -2.36351054       -0.88820389       -0.04375798
 C           -0.55117403       -3.52631034       -1.97795066
 C           -1.92154473       -3.12869751       -1.67572240
 C            1.16657168       -1.87956252       -2.51989372
 C           -0.01069290       -2.53148975       -2.86677085
 C            2.28009554        0.28037757       -2.81919257
 C            1.54143938       -0.83815365       -3.36305210
 C            1.70089496        2.69324713       -3.07425309
 C            2.02856068        1.42093714       -3.68151672
 C            0.58543681        3.24606048       -3.83039568
 C           -0.19747555        4.35754972       -1.75666257
 C           -1.33904708        3.95156281       -0.95529358
 C           -0.46283231        3.94850469       -3.11751123
 C           -2.12488710        1.65680481       -1.14576352
 C           -2.03785972        2.93138175       -1.69940386
 C           -1.63212395        3.07640099       -3.08487531
 C           -2.32772658       -0.72261379       -1.43905807
 C           -2.11937038       -1.82402735       -2.26284813
 C           -1.12550624       -1.71461789       -3.30753485
 C           -2.07581592        0.53867195       -1.97861720
 C            0.49776839       -0.26071704       -4.19171710
 C            0.92949229        1.06689042       -4.57006370
 C           -0.04559439        2.13788296       -4.51688342
 C           -1.30867500        1.88498459       -3.84186776
 C           -0.82005571       -0.45592156       -3.79092772
 C           -1.51789172        0.63415617       -3.26622757
