   70
C70 / DATE: 7/ 1/2024 / Origin: Program Fullerene / C70 from database
 C            0.99907261       -0.06753185        4.68459636
 C            2.30584570       -0.40959715        4.17822243
 C            2.21349043       -1.74677371        3.60412907
 C            0.16395587       -1.24601169        4.52597491
 C            0.81020557       -2.08298255        3.53462758
 C           -1.17405498       -0.77771056        4.25648545
 C            0.28806678        1.03225436        4.06589858
 C           -1.11209739        0.67104925        4.10241839
 C            0.79054656        1.61110025        2.90243450
 C            2.89817374        0.43512998        3.16093643
 C            2.12985384        1.41345179        2.52739132
 C            2.97721531       -1.73020601        2.37850411
 C            3.68254483       -0.45837284        2.34005071
 C            2.39879373       -2.20263588        1.20439401
 C            0.21000640       -2.24888361        2.28363512
 C            1.00510976       -2.36790595        1.13244347
 C           -1.85758989       -1.28710385        3.08760222
 C           -1.17466730       -2.07259233        2.15583965
 C           -1.94742992        1.01624352        2.96520701
 C           -2.65446305       -0.19017229        2.58766555
 C           -0.09640509        2.23097582        2.01764554
 C           -1.42929252        1.81196300        1.94636026
 C            0.41593664        3.02312564        1.00466078
 C            2.58886475        1.93104791        1.31114751
 C            1.80467328        2.85023983        0.62061183
 C            4.12470683        0.00161236        1.11198798
 C            3.61274277        1.27441656        0.62123316
 C            3.12226318       -2.00773144        0.03366677
 C            4.09427814       -0.92759991       -0.00154713
 C            2.44083898       -2.01970884       -1.24196453
 C            0.38592080       -2.56226055       -0.10798600
 C            1.09207874       -2.32886680       -1.29341180
 C           -1.77327029       -2.23539905        0.90506542
 C           -1.00310494       -2.69894575       -0.16380410
 C           -3.10442223       -0.28775338        1.28709604
 C           -2.94053418       -1.50768560        0.64513935
 C           -2.08855015        1.80256127        0.71007689
 C           -3.10020900        0.85981568        0.50289161
 C           -0.36412522        3.21565124       -0.20503189
 C           -1.54839934        2.50254207       -0.37562098
 C            1.86175936        2.87649234       -0.83164400
 C            0.56810399        3.32875638       -1.31289648
 C            3.55601927        1.19783934       -0.83260056
 C            3.86874170       -0.16249020       -1.21325963
 C            2.90426276       -0.88141837       -2.01539928
 C            2.52801627        1.85301287       -1.49938656
 C            1.95627093       -0.15904634       -2.72758662
 C            1.91162329        1.23673580       -2.59483200
 C            0.38985272       -1.96060984       -2.43677055
 C            0.81706661       -0.83953715       -3.15681960
 C           -1.60963248       -2.88321147       -1.40693281
 C           -0.89870606       -2.44979008       -2.59537166
 C           -3.61712945       -1.69361057       -0.55175637
 C           -3.00306616       -2.51600746       -1.57165037
 C           -3.73977040        0.79291371       -0.72782016
 C           -4.16957388       -0.51525114       -1.20093873
 C           -2.04419211        2.29613777       -1.66824462
 C           -3.17993164        1.51111513       -1.85531161
 C            0.15150104        2.94037085       -2.57453514
 C            0.93666849        1.94813177       -3.29093077
 C           -1.24569919        2.60165476       -2.77138258
 C           -0.03878063       -0.21235487       -4.05431219
 C            0.03010954        1.22925010       -4.17051390
 C           -1.30772783        1.75019940       -3.94469912
 C           -1.83705974       -1.76237439       -3.46729183
 C           -3.14832089       -1.83424160       -2.84879480
 C           -3.88065759       -0.60342143       -2.62013531
 C           -3.27875960        0.65139384       -3.02990519
 C           -1.43947088       -0.58899887       -4.09720601
 C           -2.22808720        0.62961082       -3.93774507
