   70
C70 / DATE: 7/ 1/2024 / Origin: Program Fullerene / C70 from database
 C            1.59778062        0.05203975        4.47217976
 C            0.79952821       -1.15265604        4.33655173
 C            1.39070528       -1.97466778        3.29378091
 C            2.66862228       -0.01805830        3.49699865
 C            2.61263545       -1.31882445        2.86014617
 C            2.58732323        1.15332920        2.64441294
 C            0.75445620        1.17737345        4.11506447
 C            1.37691985        1.87047880        3.00137626
 C           -0.58388139       -0.74947711        4.19172317
 C           -0.60036742        0.68471415        3.94303353
 C           -1.41594248       -1.55450142        3.43440628
 C            0.55708255       -2.55800723        2.33586494
 C           -0.82256180       -2.55531121        2.55321609
 C            1.05574572       -2.78844416        1.04549472
 C            2.94828545       -1.39490656        1.51974568
 C            2.37059614       -2.40275267        0.75862354
 C            2.89123905        0.99573520        1.29621602
 C            3.38177171       -0.23771762        0.87126837
 C            2.28526677        1.83662415        0.35869659
 C            0.56229475        2.33426426        1.97878036
 C            1.10720832        2.51363887        0.70784231
 C           -1.35210029        1.18178729        2.87974804
 C           -0.82074422        2.21836340        2.11192710
 C           -2.49374530       -0.93134347        2.69290597
 C           -2.40859866        0.42148310        2.36690754
 C           -1.72310817       -2.72070096        1.42582354
 C           -2.88296893       -1.87809919        1.66874077
 C            0.16743517       -3.08213628       -0.00074123
 C           -1.18680437       -2.79648118        0.14725122
 C            0.65138898       -3.28229428       -1.28832122
 C            2.92145423       -2.66670386       -0.48895471
 C            2.07486880       -3.19927482       -1.53385991
 C            3.84026887       -0.34949577       -0.43311148
 C            3.76683611       -1.64830099       -1.08485898
 C            2.68195888        1.75354543       -0.98208739
 C            3.43741532        0.65663811       -1.39970917
 C            1.96296275        2.44409567       -1.95477532
 C            0.34017024        3.15036873       -0.26822418
 C            0.82997547        3.25686761       -1.56292794
 C           -1.62879386        2.82999691        1.16781727
 C           -1.01411246        3.38239981       -0.02679900
 C           -3.14115293        0.90202133        1.27641123
 C           -2.86072552        2.17211986        0.77308868
 C           -3.60579974       -1.40978962        0.58704513
 C           -3.90327633        0.00982622        0.51995701
 C           -1.90930257       -2.29973132       -0.94261428
 C           -3.19769643       -1.81067573       -0.74628992
 C           -0.02640965       -2.61958690       -2.38763569
 C           -1.24106508       -1.99932229       -2.13165238
 C            2.27341761       -2.39326485       -2.72918449
 C            3.32414931       -1.44280224       -2.45343343
 C            3.03371015       -0.03493962       -2.61309684
 C            0.97645715       -1.89092741       -3.14085283
 C            1.59370102        1.73601386       -3.17234755
 C            1.85946093        0.37384169       -3.23575421
 C            0.78354006       -0.52637777       -3.35823679
 C           -0.10224565        3.27077592       -2.67828998
 C            0.30552660        2.22836312       -3.60524028
 C           -1.97697388        3.27033239       -1.11293050
 C           -3.09906575        2.48039326       -0.63167917
 C           -1.51830273        3.09373109       -2.41196828
 C           -4.19614215        0.30760161       -0.87133649
 C           -3.71726014       -0.81486953       -1.66571479
 C           -3.67058972        1.52396146       -1.46057219
 C           -1.55657603       -0.82538885       -2.81933532
 C           -0.53188556       -0.04741577       -3.36989778
 C           -0.78029818        1.28211485       -3.70140820
 C           -1.96583351        1.94064230       -3.18095794
 C           -2.83423878       -0.28611941       -2.68786080
 C           -3.00358954        1.15588384       -2.70038536
