   70
C70 / DATE: 7/ 1/2024 / Origin: Program Fullerene / C70 from database
 C            1.27268828       -0.17587715        4.64229071
 C            2.45633196       -0.48114059        3.87482965
 C            2.22226196       -1.75557722        3.20616282
 C            0.41004982       -1.34138629        4.55520146
 C            0.82362100       -2.07129571        3.37410565
 C           -0.94523802       -0.85641386        4.61502673
 C            0.46823390        0.95933913        4.23600358
 C           -0.89064476        0.60114413        4.56806247
 C            0.73549018        1.57419222        3.01105498
 C            2.86865606        0.45237240        2.84738266
 C            2.03852263        1.51720899        2.49814740
 C            2.73661099       -1.62849662        1.86302052
 C            3.42510385       -0.35657725        1.78397084
 C            1.93914118       -1.98892078        0.78578563
 C           -0.00615033       -2.08538828        2.24916950
 C            0.55830426       -2.15691961        0.96421390
 C           -1.86353829       -1.25670789        3.57205740
 C           -1.37745456       -1.83619720        2.39569899
 C           -1.95411532        1.02811065        3.68703155
 C           -2.77937510       -0.14550069        3.45624305
 C           -0.32505008        1.99712118        2.18754435
 C           -1.65892272        1.85154868        2.60277573
 C           -0.05413155        2.48757256        0.90517255
 C            2.33433959        2.18753431        1.31771084
 C            1.25316233        2.74951595        0.53260302
 C            3.55632144        0.21295228        0.52770957
 C            3.26368196        1.56846225        0.38510733
 C            2.40633931       -1.63720498       -0.47287852
 C            3.35682156       -0.61084829       -0.57404192
 C            1.66616149       -2.00765634       -1.58933527
 C           -0.27790371       -2.19962211       -0.16051368
 C            0.28227836       -2.18353621       -1.45300633
 C           -2.18981959       -1.78955768        1.26339808
 C           -1.66421393       -2.12179267        0.01343051
 C           -3.63080159       -0.12876834        2.37023182
 C           -3.42381913       -1.13189087        1.34009604
 C           -2.68514425        2.06806342        1.68345893
 C           -3.79925870        1.13425675        1.67719684
 C           -1.03288232        2.43407376       -0.08222702
 C           -2.36323821        2.37339019        0.29941699
 C           -0.67876491        2.13566241       -1.40313556
 C            1.61766082        2.64922831       -0.87248538
 C            2.95626872        2.08703783       -0.94009500
 C            0.65912631        2.24629528       -1.80298995
 C            3.64000254       -0.07467969       -1.82099358
 C            3.29354387        1.31916243       -2.04492400
 C            2.24648438       -1.84806522       -2.84406346
 C            3.25263229       -0.81981531       -3.00057320
 C            1.40687729       -1.78829453       -4.01613436
 C           -0.55002543       -2.19341582       -2.58626246
 C           -0.02208088       -1.89872547       -3.84282175
 C           -2.49531541       -2.04009166       -1.09763614
 C           -1.91302404       -1.97798132       -2.42214078
 C           -4.03593223       -0.61110454        0.13213285
 C           -4.12622191        0.82932246        0.29793684
 C           -3.30657306        1.67291293       -0.55367693
 C           -3.59261959       -1.08952247       -1.08582110
 C           -1.64286861        1.61535666       -2.27670781
 C           -2.53067117       -0.85399378       -3.11954524
 C           -2.84909315        1.14669368       -1.75439464
 C           -3.28346460       -0.12584117       -2.12340379
 C           -0.62403358       -0.81454777       -4.59704259
 C           -1.26074436        1.17127286       -3.54037952
 C           -1.74506843       -0.12630989       -3.99530365
 C            1.07636436        1.71281844       -3.02680691
 C            2.41229690        1.33844554       -3.19627665
 C            2.73175832        0.14126512       -3.95465094
 C            1.67558644       -0.52041673       -4.68819927
 C            0.12420692        1.29776633       -3.95472975
 C            0.41127228        0.16998288       -4.82818465
