   70
C70 / DATE: 7/ 1/2024 / Origin: Program Fullerene / C70 from database
 C            1.25930430       -0.03638948        4.37185349
 C            2.53313213       -0.29453966        3.74243382
 C            2.56040093       -1.69418370        3.36491521
 C            0.44370041       -1.23748081        4.24100274
 C            1.21064951       -2.21444391        3.50545492
 C           -0.84231206       -0.83481282        3.72067150
 C            0.46356368        1.07664708        3.89344960
 C           -0.90693304        0.61097836        3.83496584
 C            0.93540896        1.89044763        2.86297648
 C            2.89243475        0.47627471        2.57157174
 C            2.13137829        1.57406844        2.19659428
 C            3.19948628       -1.79248164        2.06252101
 C            3.30631535       -0.44372147        1.52749810
 C            2.77665019       -2.80152870        1.21766436
 C            0.64497328       -2.86101728        2.41156709
 C            1.53556019       -3.48467947        1.54436718
 C           -1.34124466       -1.43930360        2.57002551
 C           -0.62119133       -2.46844676        1.93323636
 C           -2.40370684       -0.81687024        1.91164136
 C           -1.79766053        1.29646831        3.02646421
 C           -2.64444343        0.54021599        2.12100804
 C            0.02879027        2.76240874        2.24651444
 C           -1.33538180        2.47142930        2.30283548
 C            0.48261590        3.59409139        1.22514783
 C            2.31446135        2.05298910        0.90919400
 C            1.75866761        3.28380832        0.61438881
 C            2.91671888       -0.17316491        0.21026030
 C            2.54759877        1.13003541       -0.11960038
 C            2.72323796       -2.53624707       -0.20521446
 C            2.56788021       -1.22189268       -0.64753765
 C            1.04480451       -4.07281799        0.32351761
 C            1.87857265       -3.56859511       -0.75877416
 C           -1.14519887       -3.06390847        0.77197079
 C           -0.33296146       -3.84273153       -0.04521082
 C           -2.96107006       -1.41315460        0.79237319
 C           -2.32903313       -2.58525072        0.22377532
 C           -3.40501586       -0.56616467       -0.30333631
 C           -2.94312113        1.38875676        0.97743122
 C           -2.13992155        2.58950248        1.09357283
 C           -3.11687212        0.79704822       -0.26541929
 C           -0.42354382        3.92487876        0.13858492
 C           -1.56652521        3.14626545       -0.04155279
 C            1.71872663        3.72558519       -0.76232993
 C            0.39977195        4.29085802       -0.99575417
 C            2.13302732        1.41291854       -1.42128911
 C            1.95757944        2.74300665       -1.79726595
 C            1.83779175       -0.95553261       -1.82107353
 C            1.64633995        0.37570357       -2.22920266
 C            1.00340837       -3.21616169       -1.84619309
 C           -0.34686586       -3.60823194       -1.47801882
 C            1.17180319       -1.99878018       -2.48787154
 C           -2.46844145       -2.51162055       -1.22701450
 C           -3.24232818       -1.31241112       -1.53595914
 C           -1.40577354       -2.90541099       -2.04676595
 C           -3.00783247       -0.62132997       -2.71334768
 C           -2.63616541        1.43864926       -1.41063057
 C           -1.86619788        2.60740467       -1.30225189
 C           -2.77585647        0.81398214       -2.65355310
 C           -0.01814776        3.87880355       -2.31376489
 C            1.04876376        3.05973004       -2.87340115
 C           -1.24160543        3.11408199       -2.44414662
 C            0.85732220        0.66629985       -3.35677000
 C           -1.87037235        1.15630739       -3.73987521
 C            0.41739049        1.96863777       -3.57570128
 C           -1.01464716        2.22894130       -3.56560004
 C            0.20642278       -1.68971117       -3.43058621
 C           -1.14269520       -2.19510518       -3.21728525
 C           -2.07304811       -1.17911078       -3.66736357
 C            0.10723747       -0.34430760       -3.94058041
 C           -1.29577751       -0.08568331       -4.22120745
