   70
C70 / DATE: 7/ 1/2024 / Origin: Program Fullerene / C70 from database
 C            1.55212703        0.08027477        4.70434466
 C            0.78362004       -1.13587579        4.51303627
 C            1.47920216       -1.95625583        3.53545515
 C            2.68516293        0.03021400        3.79749112
 C            2.74909149       -1.30589149        3.24431929
 C            2.58118653        1.14747482        2.87518753
 C            0.71354328        1.19399293        4.30208376
 C            1.38775394        1.89631049        3.23257479
 C           -0.58904631       -0.75428024        4.24376956
 C           -0.61930505        0.68824326        4.04437402
 C           -1.33198777       -1.55328522        3.38987095
 C            0.74807488       -2.53916056        2.49631955
 C           -0.64481908       -2.53593861        2.56090916
 C            1.37952316       -2.82114548        1.28067292
 C            3.28319885       -1.45146491        1.97731413
 C            2.71361352       -2.45508905        1.10790601
 C            2.86673876        0.93415920        1.52192151
 C            3.47278800       -0.26394024        1.15105934
 C            2.19630049        1.69804927        0.55742600
 C            0.62663361        2.41574014        2.20244480
 C            1.26155762        2.63682861        0.99383825
 C           -1.32863504        1.20543318        2.96105315
 C           -0.76008828        2.23576445        2.19820756
 C           -2.35053746       -0.93237613        2.56453362
 C           -2.37299899        0.45258728        2.42412999
 C           -1.41652433       -2.69855861        1.34128839
 C           -2.52367999       -1.76051383        1.38289659
 C            0.62009460       -3.15605990        0.15370232
 C           -0.75407185       -2.89679404        0.14097481
 C            1.28323122       -3.39189992       -1.04997817
 C            3.18912563       -2.13488867       -0.22172825
 C            3.41692318       -0.69844544       -0.23369735
 C            2.53908856       -2.70599236       -1.29888332
 C            2.21194280        1.31583920       -0.79392190
 C            2.75015623        0.07982761       -1.17377336
 C            1.57101826        2.11677869       -1.74665554
 C            0.61206226        3.43780306        0.07526064
 C            0.88215827        3.25286833       -1.33352272
 C           -1.49357518        2.80816674        1.15347976
 C           -0.82030664        3.61430970        0.23337111
 C           -3.12241213        0.98725822        1.38553196
 C           -2.72978690        2.26094671        0.81216290
 C           -2.94990469       -1.15760488        0.20459269
 C           -3.51222909        0.11556009        0.28848153
 C           -1.38971226       -2.52636322       -1.04618037
 C           -2.44693725       -1.60994315       -1.01827522
 C            0.53277849       -3.37159409       -2.29262323
 C           -0.83583881       -2.90252609       -2.26542530
 C            2.33786363       -1.90083087       -2.48685139
 C            2.36562984       -0.51083089       -2.38105383
 C            1.26254524       -2.53068634       -3.22981666
 C            1.33236296        1.61511945       -3.02401924
 C            1.70103266        0.24906987       -3.33618617
 C            0.06516385        1.89408491       -3.68736958
 C           -0.30866740        3.66733238       -2.05645796
 C           -1.38091415        3.83458452       -1.08801538
 C           -0.79931195        2.82809068       -3.13233402
 C           -3.18845917        2.27521863       -0.57261630
 C           -3.64818562        0.93500869       -0.90385947
 C           -2.50466858        3.02803959       -1.51837359
 C           -2.16507540        2.44122035       -2.80659847
 C           -2.84438417       -0.97768652       -2.19633417
 C           -3.34714941        0.38309357       -2.14075505
 C           -2.61958698        1.16603292       -3.12883171
 C           -1.02155323       -2.04925333       -3.42528162
 C            0.30065993       -1.68584637       -3.91304728
 C            0.61213244       -0.34542946       -4.10270295
 C           -0.45875288        0.63309114       -4.18388642
 C           -2.02655115       -1.09328671       -3.39158267
 C           -1.76042913        0.25532080       -3.87134715
