   70
C70 / DATE: 7/ 1/2024 / Origin: Program Fullerene / C70 from database
 C            1.55154037       -0.06496387        4.78509047
 C            0.73799890       -1.20734628        4.42494159
 C            1.45435732       -1.96683940        3.41978294
 C            2.68261120       -0.03252012        3.87226997
 C            2.51600595       -1.11367155        2.91873850
 C            2.78408031        1.31449137        3.37179070
 C            0.75892827        1.12689497        4.53909253
 C            1.59755543        2.04387652        3.80901507
 C           -0.58572354       -0.72956923        4.07497739
 C           -0.49812684        0.71394956        3.93928352
 C           -1.27171423       -1.43561435        3.09903329
 C            0.69414377       -2.65331305        2.48885332
 C           -0.69356306       -2.61166285        2.62128820
 C            1.22260823       -2.82723208        1.21474095
 C            2.57494478       -0.86238735        1.54352679
 C            2.02888438       -1.81751638        0.67628828
 C            2.89907771        1.51336333        1.94132220
 C            2.83937637        0.43087173        1.06510783
 C            1.04816922        2.68975285        2.63673824
 C            2.09114721        2.67008243        1.63508901
 C           -0.93438313        1.30410132        2.74888860
 C           -0.25509729        2.41172885        2.21668709
 C           -2.13043512       -0.73574933        2.25566903
 C           -1.84082569        0.59920328        1.94915798
 C           -2.95122983       -1.47175190        1.40883094
 C           -1.45419105       -3.42796851        1.79322501
 C           -2.69647898       -2.89511552        1.26242821
 C            0.57534222       -3.71630934        0.37115951
 C           -0.77834011       -4.12566706        0.71330763
 C            0.61787684       -3.49589839       -1.05625576
 C            2.04850534       -1.59093047       -0.70710113
 C            1.44986234       -2.51577119       -1.58001872
 C            2.60448246        0.71156459       -0.28013316
 C            2.47219523       -0.34017512       -1.17775259
 C            1.68996011        2.85118532        0.32777711
 C            2.19046321        1.99956039       -0.65340766
 C           -0.60879035        2.87444712        0.94658918
 C            0.42041246        3.36323608        0.13211177
 C           -2.27218431        1.15247746        0.73984789
 C           -1.78186079        2.40134011        0.35226904
 C           -3.25789857       -0.94891420        0.09444195
 C           -2.88451224        0.34273444       -0.22133601
 C           -2.76093126       -3.22069008       -0.15397886
 C           -1.59995159       -4.01201196       -0.48064733
 C           -0.74662918       -3.55575457       -1.55375524
 C           -2.98153664       -1.98618016       -0.88295158
 C           -1.17190586       -2.54052066       -2.40719596
 C           -2.18974259       -1.66405466       -1.99170941
 C            1.17841236       -2.13666375       -2.88925137
 C           -0.21663832       -2.07873286       -3.30267252
 C            2.45125893       -0.04755090       -2.53606711
 C            1.85683436       -0.99403081       -3.44892200
 C            1.82738932        2.25922588       -1.98088320
 C            2.04818762        1.28394083       -2.95555943
 C            0.12698558        3.82203165       -1.13859592
 C            0.92472642        3.29865474       -2.23746791
 C           -2.15930528        2.91401306       -0.89142890
 C           -1.25515954        3.82780325       -1.55801162
 C           -2.71064106        0.65030431       -1.56088378
 C           -2.17139987       -0.32556592       -2.41318164
 C           -2.65455759        1.99020520       -1.89779510
 C           -0.41811264       -0.81828103       -3.98127284
 C            0.89812509       -0.27878809       -4.27153812
 C            1.11280835        1.13865195       -4.06941320
 C           -1.40478929        0.04657757       -3.52710266
 C            0.06227008        3.22106492       -3.40140735
 C           -1.28897635        3.54982232       -2.98280280
 C           -2.10555612        2.36715816       -3.17966956
 C            0.00604120        1.97159712       -4.12663526
 C           -1.31238068        1.38980032       -3.89255607
