   70
C70 / DATE: 7/ 1/2024 / Origin: Program Fullerene / C70 from database
 C            1.59588949        0.06594478        4.61675520
 C            0.77998423       -1.13144334        4.55001144
 C            1.45677272       -2.07962745        3.68754438
 C            2.66254472       -0.06847337        3.63737239
 C            2.56513659       -1.38258268        3.04958532
 C            2.60240042        1.07468184        2.75788687
 C            0.76725065        1.18339293        4.20589557
 C            1.49037211        1.90304572        3.18130150
 C           -0.57173111       -0.73786262        4.20833788
 C           -0.54684525        0.67662930        3.86799848
 C           -1.31997532       -1.60005852        3.42555964
 C            0.69784594       -2.94647922        2.90818819
 C           -0.69751602       -2.80873695        2.89884156
 C            1.33403320       -3.52640483        1.81501315
 C            2.73867865       -1.53354789        1.67623068
 C            2.37003527       -2.76204156        1.13546151
 C            2.77949763        0.89726474        1.38795629
 C            2.77096377       -0.40044225        0.84323945
 C            2.43663234        1.97262204        0.56462643
 C            0.76815066        2.52157651        2.17565232
 C            1.46872382        2.87072474        1.02921423
 C           -1.13006265        1.11593815        2.67974266
 C           -0.59705932        2.23950088        2.04099903
 C           -2.15257545       -1.04980555        2.37089093
 C           -1.96425872        0.26351675        1.95518587
 C           -1.47214510       -3.20120968        1.72789995
 C           -2.33376318       -2.08362279        1.36887168
 C            0.55161471       -4.20995089        0.80605400
 C           -0.86986408       -3.93850008        0.72126816
 C            2.14195723       -2.88185771       -0.29187630
 C            1.14624354       -3.90933673       -0.48585040
 C            2.62810892       -0.55968672       -0.54279887
 C            2.06879102       -1.72640876       -1.05538679
 C            2.68980571        1.86436096       -0.79738748
 C            2.76464198        0.53935417       -1.37662439
 C            2.00583958        2.73219985       -1.74036800
 C            0.82834376        3.73116173        0.15036588
 C            1.18453161        3.73545280       -1.25579799
 C           -1.26334044        2.76489653        0.93160007
 C           -0.61579748        3.78353471        0.23135563
 C           -2.33879367        0.62604001        0.66443185
 C           -2.19413148        1.95374208        0.27033940
 C           -2.46186402       -1.71404330        0.03250719
 C           -2.63345771       -0.36096987       -0.28715001
 C           -1.17237356       -3.62124027       -0.66189502
 C            0.07428481       -3.63866712       -1.41017230
 C           -2.09681718       -2.62275381       -0.96603909
 C            1.22794359       -1.66977043       -2.18117657
 C            0.24388015       -2.65831595       -2.37690261
 C            2.04812003        0.55844894       -2.63890060
 C            1.56376893        1.91441831       -2.86194002
 C            1.24183882       -0.51946554       -2.99026727
 C            0.30375641        2.11344163       -3.43151195
 C           -0.00470219        4.09803806       -2.00430382
 C           -1.10784886        4.21316322       -1.05942273
 C           -0.44549821        3.24094576       -3.08923583
 C           -2.76228757        2.35847713       -0.93356555
 C           -2.24840141        3.52778296       -1.62142304
 C           -1.88713570        3.11783456       -2.96595654
 C           -2.93872020        0.00268860       -1.60253552
 C           -3.04677070        1.35308977       -1.94002958
 C           -2.48599277        1.82261296       -3.20448032
 C           -2.13632978       -2.20497884       -2.29156863
 C           -0.90986733       -2.31896814       -3.06487798
 C           -2.72772641       -0.92376632       -2.61830501
 C            0.22675487       -0.29707029       -3.91883009
 C           -0.33144208        1.04013442       -4.05764653
 C           -1.78531236        0.92317522       -3.99016654
 C           -0.87075168       -1.23073338       -4.00773085
 C           -2.10397885       -0.48100987       -3.85206061
