   70
C70 / DATE: 7/ 1/2024 / Origin: Program Fullerene / C70 from database
 C            1.00344441       -0.11215882        4.93199793
 C            2.31038022       -0.32358310        4.34310758
 C            2.27509232       -1.61313933        3.66860899
 C            0.19689375       -1.28194003        4.61723917
 C            0.89312930       -2.01843134        3.58008160
 C           -1.14522269       -0.82468108        4.35243272
 C            0.23468846        1.06038238        4.55334654
 C           -1.13964200        0.63200491        4.39469576
 C            0.76484299        1.97873741        3.65315651
 C            2.83162697        0.64849841        3.39720333
 C            2.09680919        1.78455409        3.09115906
 C            3.01052851       -1.47888950        2.43701680
 C            3.44832642       -0.09817537        2.31994344
 C            2.52361145       -2.08642012        1.28727873
 C            0.31654551       -2.15144786        2.31332077
 C            1.14227500       -2.32739244        1.18714387
 C           -1.77156664       -1.20834089        3.10486491
 C           -1.05466898       -1.91361356        2.14011626
 C           -1.90341449        1.09803586        3.24930579
 C           -2.54422499       -0.06792533        2.67068932
 C           -0.07930094        2.54708680        2.61032092
 C           -1.36740464        2.05308564        2.38460782
 C            2.07805198        2.26578437        1.71918381
 C            0.77250884        2.84629230        1.47077341
 C            3.51089604        0.43699063        1.03630515
 C            2.68919371        1.52939671        0.70845880
 C            3.23474533       -1.79802898        0.13264375
 C            3.82917062       -0.47335112        0.03597849
 C            2.66494765       -2.11454928       -1.15490805
 C            0.54940386       -2.51470680       -0.07181893
 C            1.31074314       -2.39547469       -1.24358685
 C           -1.58913634       -1.96127665        0.85568774
 C           -0.84311357       -2.54735012       -0.15907947
 C           -2.90180901       -0.00335539        1.33752979
 C           -2.64801087       -1.10530821        0.52486588
 C           -1.91325520        2.15298713        1.10005719
 C           -2.91473474        1.24531508        0.74036421
 C            0.22293821        2.76375596        0.20100709
 C           -1.16018401        2.76659129        0.09364768
 C            2.24689287        1.70853688       -0.61057797
 C            0.98479461        2.26172543       -0.85865971
 C            3.75169544       -0.05568678       -1.34265704
 C            3.22787736       -1.17850994       -2.10029790
 C            2.93354538        1.09474370       -1.64895878
 C            2.34700308       -0.63983840       -3.10806944
 C            2.23212317        0.79418605       -2.87975863
 C            0.66809087       -2.23782661       -2.47646847
 C            1.18435477       -1.33027259       -3.42161920
 C           -1.45140864       -2.75861716       -1.39059266
 C           -0.63876786       -2.70370859       -2.58933975
 C           -3.12006873       -1.07583812       -0.78855190
 C           -2.69386614       -2.06154042       -1.67337045
 C           -3.49967900        1.34004809       -0.51242326
 C           -3.66491559        0.11513709       -1.28208846
 C           -1.71721332        2.93361166       -1.16495493
 C           -3.02656592        2.36819238       -1.41407411
 C            0.40977104        2.17972233       -2.13773952
 C            1.00370580        1.39487248       -3.13455923
 C           -0.88677260        2.66313466       -2.32694579
 C            0.31272881       -0.65500420       -4.26634180
 C            0.19768320        0.78323454       -4.09666644
 C           -1.48734896       -2.25098741       -3.67739291
 C           -2.75203767       -1.81941096       -3.10416022
 C           -1.00229193       -1.19296332       -4.53191062
 C           -3.53172465        0.46132251       -2.69084591
 C           -3.03927737        1.82763899       -2.76021562
 C           -1.73789034        2.07958265       -3.35319658
 C           -1.20507052        1.13399182       -4.21450239
 C           -3.03058010       -0.47739784       -3.58181455
 C           -1.94989182       -0.09203788       -4.47599330
