   70
C70 / DATE: 7/ 1/2024 / Origin: Program Fullerene / C70 from database
 C            1.23044431        0.19319278        4.81387328
 C            2.45276241        0.05722466        4.04962831
 C            2.53723320       -1.32928711        3.64387612
 C            0.42081255       -0.99378050        4.55980017
 C            1.19921310       -1.88624916        3.73252470
 C           -0.86573767       -0.55082399        4.07356324
 C            0.39498387        1.34578194        4.56119556
 C           -0.96055006        0.85921482        4.37402102
 C            0.69474552        2.19178536        3.41895626
 C            2.62999545        0.86223101        2.85052037
 C            1.66157809        1.79840050        2.49364705
 C            3.19281578       -1.36375054        2.35313036
 C            3.18482738       -0.00588963        1.82514869
 C            2.83488022       -2.38460128        1.49409775
 C            0.63904636       -2.42536238        2.57638667
 C            1.52133014       -2.99609772        1.66645027
 C           -1.31230356       -0.98014609        2.82862825
 C           -0.59988620       -1.95608422        2.11160688
 C           -2.30396867       -0.23665990        2.18311412
 C           -1.58680218        1.71333561        3.38693613
 C           -0.58430621        2.66481727        2.92746229
 C           -2.41540253        1.13999175        2.42824594
 C           -0.67554077        3.11283841        1.61518267
 C            1.45655273        2.09336426        1.14620807
 C            0.45024370        2.99813869        0.79622509
 C            2.82700206        0.20148721        0.49215150
 C            2.07876244        1.32414128        0.15249366
 C            2.98379023       -2.16054937        0.07552667
 C            2.91278150       -0.85658817       -0.41623769
 C            1.04983762       -3.37345308        0.34768928
 C            2.17317672       -3.17964419       -0.55106303
 C           -1.07652728       -2.36812899        0.85731988
 C           -0.21781823       -2.97287184       -0.06506350
 C           -2.94393877       -0.79983862        1.08637196
 C           -2.32877585       -1.94206867        0.43497313
 C           -3.50365636        0.05770073        0.05452305
 C           -2.82406019        1.98114052        1.39849804
 C           -1.93444021        3.06556468        1.02326673
 C           -3.39440074        1.42926468        0.18375197
 C           -2.06009181        3.27703958       -0.40465709
 C           -2.90494931        2.21426520       -0.93751461
 C            0.37392821        3.43941411       -0.52085104
 C           -0.93573562        3.66691278       -1.11452851
 C            1.80998641        1.57917762       -1.18898741
 C            1.19628609        2.78215087       -1.51956000
 C            2.50612360       -0.67201887       -1.74378223
 C            1.88876073        0.53300952       -2.12224174
 C            1.90821518       -3.03739434       -1.89406259
 C            2.35086223       -1.81357784       -2.53266991
 C           -0.48897222       -2.90717092       -1.44080456
 C            0.54196813       -3.21465859       -2.33422551
 C           -2.60529148       -1.84569810       -0.98532758
 C           -3.23317639       -0.55629200       -1.23081611
 C           -1.67579068       -2.31652673       -1.90371667
 C           -2.55327080        1.58675739       -2.13390899
 C           -2.79537979        0.21604591       -2.30704922
 C           -0.85085942        3.31364176       -2.51646436
 C            0.51923875        2.90976882       -2.78777507
 C           -1.71851881        2.26500661       -3.02246517
 C            1.28230895        0.66100696       -3.38914651
 C            0.46469012        1.75533712       -3.65186573
 C           -0.93404691        1.51686763       -3.98058488
 C            1.62024218       -1.73628010       -3.77639611
 C            0.51766479       -2.68746057       -3.68247699
 C            1.06568289       -0.46702181       -4.17402390
 C           -1.75645911       -1.81170608       -3.20320228
 C           -2.24914631       -0.45635106       -3.40036984
 C           -1.32257802        0.22598201       -4.29258794
 C           -0.67770125       -2.02502235       -4.14376689
 C           -0.28269026       -0.72294524       -4.64880145
