   70
C70 / DATE: 7/ 1/2024 / Origin: Program Fullerene / C70 from database
 C            1.03672132       -0.02755167        4.72004016
 C            2.28209341       -0.34039040        4.05619884
 C            2.24564301       -1.75075669        3.71543032
 C            0.21276981       -1.22985766        4.70075959
 C            0.86187549       -2.17171073        3.81488812
 C           -1.14123632       -0.82468297        4.40261764
 C            0.22319827        1.05063008        4.19761240
 C           -1.14838117        0.62740723        4.34730097
 C            0.57832741        1.68837577        3.00925309
 C            2.62283510        0.37740628        2.84583457
 C            1.76761064        1.35040384        2.34154776
 C            2.91243948       -1.91216085        2.43804573
 C            3.19647771       -0.58064736        1.91941695
 C            2.40095286       -2.85463999        1.55981091
 C            0.21858684       -2.60615026        2.65403939
 C            1.00127414       -3.24034053        1.69482533
 C           -1.75333161       -1.29817226        3.17536385
 C           -1.00000369       -2.02894514        2.26326111
 C           -2.07741534        1.00875448        3.30900150
 C           -2.56970100       -0.21083314        2.68325386
 C           -0.40096475        2.42018985        2.32525570
 C           -1.75423340        2.07020564        2.47148959
 C            0.00320184        3.20161708        1.24345387
 C            1.93843690        1.74245776        1.01695268
 C            1.23394459        2.84689219        0.56178211
 C            3.06592281       -0.35510684        0.54923843
 C            2.49497589        0.84438317        0.09886965
 C            2.65889969       -2.68202795        0.14486774
 C            3.11761144       -1.45274412       -0.31323289
 C            0.47100808       -3.44826394        0.36187773
 C            1.57687576       -3.32880312       -0.57461955
 C           -1.36922184       -2.01038263        0.91208066
 C           -0.75382338       -2.89528589        0.02088616
 C           -2.88948772       -0.15354213        1.33123255
 C           -2.30856611       -1.07098900        0.44666612
 C           -2.62409066        2.26712503        1.40657317
 C           -3.26453475        1.09131115        0.84125957
 C           -0.95822954        3.61405834        0.23506710
 C           -2.25961886        3.14614919        0.31406401
 C            1.03268006        3.03047965       -0.86305338
 C           -0.27556390        3.63228823       -1.05008127
 C            2.35073411        1.06295634       -1.27560537
 C            1.47121020        2.04717819       -1.74324887
 C            3.08205924       -1.22869839       -1.68096025
 C            2.87387867        0.12340156       -2.15584349
 C            1.31411870       -2.92074530       -1.87905020
 C            2.25304480       -2.09854883       -2.50232685
 C           -1.08441919       -2.86207541       -1.32688503
 C           -0.01351642       -2.91360834       -2.31346988
 C           -2.54039957       -0.93782243       -0.92916551
 C           -2.07762640       -1.91989663       -1.79606765
 C           -3.38015473        1.29310904       -0.58521683
 C           -2.91678996        2.64188746       -0.87980352
 C           -3.05393983        0.25573779       -1.44979829
 C           -0.98202396        3.35345105       -2.21180675
 C           -2.36414191        2.89945318       -2.12633601
 C            0.87127882        1.93313813       -3.00639199
 C           -0.33153363        2.58954223       -3.26204867
 C            2.33006272        0.02386988       -3.49296426
 C            1.89458913       -1.35149496       -3.69324766
 C            1.23231327        0.89092098       -3.85623317
 C           -0.42235653       -2.10708352       -3.45572435
 C           -1.74555301       -1.57354018       -3.16842236
 C            0.50994677       -1.32069414       -4.12078110
 C            0.18859117        0.05995116       -4.43850020
 C           -2.88978526        0.55521936       -2.80188260
 C           -2.57136188        1.92068623       -3.17954640
 C           -1.36827485        1.87859190       -3.98865295
 C           -2.10775990       -0.32457307       -3.65215412
 C           -1.12814907        0.49353701       -4.35699752
