   70
C70 / DATE: 7/ 1/2024 / Origin: Program Fullerene / C70 from database
 C            1.22705121       -0.26515188        4.66563773
 C            2.49065376       -0.53092997        4.00796907
 C            2.41633659       -1.85944513        3.41803043
 C            0.39368426       -1.44955626        4.52406491
 C            1.09559506       -2.39758341        3.68233516
 C           -0.93356439       -1.01474060        4.13317465
 C            0.44265754        0.88654850        4.25188982
 C           -0.91899959        0.43689361        4.03595969
 C            0.98913536        1.82051675        3.38379556
 C            2.95805828        0.38540950        2.98262669
 C            2.29232124        1.58467519        2.77286493
 C            2.87670391       -1.76128140        2.04431070
 C            3.35423970       -0.40635400        1.83413301
 C            2.15693534       -2.37864304        1.02143278
 C            0.40452190       -3.01870738        2.65137428
 C            1.01001397       -3.11442700        1.33042342
 C           -1.65203969       -1.73635198        3.18095993
 C           -1.01806278       -2.75684475        2.46623534
 C           -2.76499076       -1.11836405        2.61819624
 C           -1.71541229        1.03524206        3.06374464
 C           -2.85374823        0.33154451        2.69439027
 C            0.13554169        2.43733233        2.38322948
 C           -1.14213522        1.93881497        2.15311005
 C            2.25702482        2.14342857        1.43327186
 C            0.96833679        2.78033534        1.24773819
 C            3.24785301        0.12253859        0.55485108
 C            2.79933436        1.43582503        0.36332787
 C            2.33687665       -1.92182332       -0.28763542
 C            3.11595332       -0.77812150       -0.49323775
 C            1.42385048       -2.31413643       -1.27048227
 C           -0.06950694       -3.18896988        0.35890673
 C           -1.31838332       -2.94457278        1.05071815
 C            0.12729980       -2.63425963       -0.89265071
 C           -3.18899010       -1.49309910        1.28102347
 C           -2.29182568       -2.15622490        0.44846771
 C           -3.63355247        0.78625776        1.56711046
 C           -3.95570235       -0.38288183        0.76368696
 C           -1.73611291        2.16562576        0.90381450
 C           -3.04681171        1.76914712        0.68344509
 C            0.42005519        2.76685489       -0.02576030
 C           -0.94851036        2.53416506       -0.19309037
 C            2.44826707        1.83520686       -0.93084214
 C            1.27613762        2.58166542       -1.10705442
 C            3.28212255       -0.29004037       -1.77935372
 C            2.96858098        1.10802803       -2.00009615
 C            1.66295445       -1.98018712       -2.59444321
 C            2.73198212       -1.04758613       -2.88240786
 C            0.53195889       -1.63675996       -3.43944301
 C           -0.94606711       -2.05931332       -1.57568289
 C           -2.13394509       -1.74884115       -0.88858213
 C           -0.75381347       -1.62997561       -2.89352792
 C           -3.77281305       -0.01502900       -0.61692546
 C           -3.44522573        1.40059732       -0.65722261
 C           -3.06365404       -0.86300096       -1.45767352
 C           -1.48829354        2.51590734       -1.48899215
 C           -2.69304605        1.83964116       -1.73714597
 C            0.78005227        2.82370260       -2.38154369
 C           -0.66145464        2.86682600       -2.56155402
 C            2.38491123        1.23315086       -3.32474892
 C            2.25596566       -0.10547161       -3.87768412
 C            0.95238538       -0.55877515       -4.32811190
 C            1.35936079        2.14381634       -3.52872439
 C           -0.94941959        2.36286909       -3.89420927
 C            0.02239618        0.38915557       -4.73096657
 C            0.27374489        1.79245263       -4.43105948
 C           -1.75127366       -0.90231913       -3.52719366
 C           -2.83917712       -0.37345716       -2.73697165
 C           -2.80753286        1.07052689       -2.89198222
 C           -1.38254334        0.13139902       -4.48337182
 C           -1.99424628        1.37712619       -4.04587913
