   70
C70 / DATE: 7/ 1/2024 / Origin: Program Fullerene / C70 from database
 C            1.54616045        0.04184966        4.86496723
 C            0.75691471       -1.17507430        4.78455318
 C            1.61090081       -2.20024099        4.23612976
 C            2.71944489       -0.14589436        4.02882901
 C            2.81600814       -1.55349671        3.72735527
 C            2.62634069        0.78909364        2.92711021
 C            0.76009726        1.11365972        4.28137051
 C            1.51937813        1.68938724        3.19492382
 C           -0.47759672       -0.85923459        4.08948045
 C           -0.54603195        0.58749412        3.96365882
 C           -0.89987539       -1.64505129        3.00956957
 C            1.09417654       -3.02208064        3.16273617
 C           -0.19938200       -2.81572418        2.67474539
 C            2.96323885       -1.96113533        2.34135585
 C            2.17927959       -3.17008965        2.20991830
 C            2.80961202        0.35508222        1.61524926
 C            2.90263344       -1.01328076        1.31627305
 C            2.42788388        1.22569101        0.60326279
 C            0.82061957        2.18249766        2.09936816
 C            1.47942788        2.21425606        0.88349488
 C           -1.19533009        1.09644922        2.85249121
 C           -0.57049650        2.08087307        2.07357182
 C           -1.81203726       -1.08214869        2.10275140
 C           -2.12384634        0.27497044        2.23636866
 C           -2.13968673       -1.75022836        0.91581431
 C           -0.55596471       -3.51799001        1.52826741
 C           -1.55943168       -2.97462329        0.63187881
 C            1.86491238       -3.61251622        0.93864772
 C            0.50839417       -4.07462666        0.70904458
 C            2.62525200       -1.45320494        0.01228357
 C            2.22569329       -2.77459975       -0.19599301
 C            2.61036968        0.82996482       -0.71369748
 C            2.44547719       -0.51909670       -1.01550004
 C            2.40808062        1.78105493       -1.70255992
 C            0.87040318        2.86853062       -0.17609389
 C            1.59284192        2.92977195       -1.35814860
 C           -1.25657336        2.54898718        0.94347547
 C           -0.53182562        2.93493793       -0.20308421
 C           -2.98447656        0.87463392        1.33465011
 C           -2.59236313        2.17091924        0.81868172
 C           -2.75307917       -1.04909883       -0.12278036
 C           -3.44881992        0.10386648        0.20392420
 C           -2.34144249       -1.27825696       -1.44600773
 C           -1.14148255       -3.23547429       -0.73375669
 C            0.18714839       -3.81735806       -0.67956351
 C            1.28234251       -3.06098838       -1.25911567
 C           -1.37946278       -2.26032346       -1.69571477
 C            1.73135627       -0.88786071       -2.16641772
 C            0.95810434       -2.04779626       -2.14575453
 C           -0.35556694       -1.97228043       -2.59430430
 C            1.98603684        1.34747211       -3.01653090
 C            1.46339798        0.06319634       -3.15675408
 C            0.95249141        3.39916539       -2.56093244
 C            1.32722019        2.49010141       -3.63282593
 C           -1.20665248        3.23358270       -1.40557649
 C           -0.48646040        3.51984283       -2.56534957
 C           -3.27907260        2.34713462       -0.43827488
 C           -3.80797522        1.04667760       -0.83155647
 C           -2.54173806        2.87112330       -1.56245108
 C           -2.63106751       -0.35465046       -2.46282988
 C           -3.36902692        0.79382337       -2.18534244
 C           -2.92321034        2.07303758       -2.71449616
 C           -0.62683043       -1.11851613       -3.64637495
 C            0.40425038       -0.17636581       -4.03858883
 C           -1.88519262       -0.39686616       -3.63996004
 C            0.15697830        2.27891544       -4.45727359
 C           -0.95504034        2.98050947       -3.83390610
 C           -2.10596283        2.09201274       -3.83504580
 C           -0.26583318        0.92078550       -4.71773676
 C           -1.68403305        0.82482182       -4.40590381
