   70
C70 / DATE: 7/ 1/2024 / Origin: Program Fullerene / C70 from database
 C            1.28826886        0.13365491        4.67784046
 C            2.47019412       -0.00301683        3.85311902
 C            2.46231536       -1.34450049        3.29384762
 C            0.44969883       -1.03202810        4.44235791
 C            1.14787588       -1.90584585        3.51096151
 C           -0.87867855       -0.56072068        4.08535452
 C            0.46277774        1.31040123        4.50718981
 C           -0.90895468        0.86802756        4.30656968
 C            0.76647500        2.23793063        3.43129973
 C            2.67910080        0.92336538        2.75101002
 C            1.74623126        1.92184876        2.48455303
 C            2.94439456       -1.25063882        1.93277530
 C            3.20290496        0.14822117        1.64719596
 C            2.33148919       -2.00435666        0.93804520
 C            0.44824351       -2.40147587        2.41547463
 C            1.12133034       -2.65965501        1.21443415
 C           -1.47164806       -1.07584913        2.94000125
 C           -0.93147931       -2.23032108        2.38664853
 C           -2.29213762       -0.26656005        2.14578839
 C           -1.48999324        1.71319984        3.28100414
 C           -0.51341197        2.74454621        2.97632009
 C           -2.19308465        1.13063759        2.22870425
 C           -0.57150240        3.35314342        1.73626561
 C            1.61944905        2.40835243        1.17920055
 C            0.61717718        3.33059821        0.90329500
 C            2.98257263        0.58155098        0.34886976
 C            2.26373413        1.75932355        0.11778123
 C            2.63306038       -1.67543997       -0.38091402
 C            3.04540016       -0.36876588       -0.66396380
 C            2.13374488       -2.48411898       -1.39143523
 C            0.41538692       -3.27470731        0.17136253
 C            0.95340501       -3.28189189       -1.11686745
 C           -1.65986766       -2.89662092        1.41988581
 C           -0.94002994       -3.55400541        0.34588993
 C           -2.96662128       -0.85377033        1.06926699
 C           -2.80019845       -2.21827546        0.83283324
 C           -3.49516402       -0.04615916        0.06339959
 C           -2.45709643        1.91045210        1.10199383
 C           -1.69343681        3.04951169        0.86528454
 C           -3.18928069        1.37174349        0.05522434
 C            0.17850038        3.51517912       -0.46391401
 C           -1.26955690        3.35095771       -0.49093550
 C            2.01110614        2.14497737       -1.20845916
 C            0.92440923        2.98375274       -1.50465470
 C            3.09758737        0.08640710       -1.97374384
 C            2.65719502        1.44490167       -2.23273103
 C            2.02124032       -1.96894083       -2.74410686
 C            2.61672719       -0.75700587       -3.05568101
 C            0.07542438       -3.18221808       -2.27829247
 C            0.65728355       -2.21098923       -3.18353449
 C           -1.82226522       -3.58339864       -0.80780883
 C           -2.96929463       -2.74136405       -0.51177004
 C           -1.29715255       -3.18824345       -2.09859674
 C           -3.49987625       -0.50568056       -1.32025943
 C           -3.13755925       -1.81010861       -1.60916531
 C           -2.07145100       -2.04967422       -2.56951922
 C           -2.87552655        1.75907008       -1.31439350
 C           -1.85550992        2.67919118       -1.56309696
 C           -2.97805293        0.56801572       -2.14292684
 C            0.28223689        2.88983034       -2.73651963
 C           -1.13745739        2.58421152       -2.75501748
 C            2.13811083        1.47897298       -3.58661890
 C            1.96168591        0.10447454       -4.02425017
 C            0.89902870        2.17660094       -3.83355313
 C           -0.10980638       -1.14257268       -3.64511898
 C           -1.41604366       -0.96849063       -3.16364276
 C           -1.98309007        0.31267475       -3.08032526
 C           -1.30522613        1.40923464       -3.59600584
 C            0.54640299       -0.09666721       -4.28750184
 C           -0.07171508        1.20911640       -4.32572372
