   70
C70 / DATE: 7/ 1/2024 / Origin: Program Fullerene / C70 from database
 C            1.44893611       -0.04289842        4.15609016
 C            2.66148532       -0.21736166        3.37233616
 C            2.54974456       -1.47718469        2.65833147
 C            0.62527127       -1.22560057        3.97885990
 C            1.31739779       -2.12713279        3.08319917
 C           -0.70779613       -0.79617546        3.61515432
 C            0.61348489        1.12390754        3.92228333
 C           -0.70408839        0.65316405        3.53100865
 C            1.15978896        2.22228147        3.27723613
 C            3.20755731        0.88057042        2.72753158
 C            2.55035810        2.17157106        2.85556969
 C            3.65560782        0.74626958        1.35253167
 C            2.93511778       -1.56880606        1.32052647
 C            3.48762769       -0.45786980        0.66809585
 C            2.45513042       -2.64778214        0.57839904
 C            0.57740102       -2.83177753        2.14070208
 C            1.25131375       -3.32871710        1.02874652
 C           -1.39140346       -1.50399572        2.63591813
 C           -0.80916749       -2.64928676        2.07534494
 C           -2.42383158       -0.85692875        1.95760235
 C           -1.37989044        1.25392548        2.47173642
 C           -2.40514636        0.53755737        1.85101288
 C            0.40215272        2.87732809        2.22480468
 C           -0.82762915        2.36432966        1.81964528
 C            2.65648309        2.85825047        1.58048860
 C            3.36814805        1.99600027        0.66175689
 C            1.33592400        3.31281115        1.20200918
 C            2.95251771        1.94349502       -0.66373084
 C            3.55858532       -0.42916722       -0.72454473
 C            3.31948816        0.82945803       -1.41327060
 C            2.40104771       -2.57686822       -0.87135157
 C            2.94512698       -1.48296963       -1.51377803
 C            0.50479705       -3.73700203       -0.14989232
 C            1.09683728       -3.06010516       -1.28902465
 C           -1.53598584       -3.38638273        1.14287998
 C           -0.87410993       -3.82682453       -0.07384421
 C           -3.28298098       -1.60880315        1.16402653
 C           -2.86981581       -2.94152002        0.77496536
 C           -3.92347084       -0.99480657        0.01462291
 C           -3.16437919        1.17205605        0.87277298
 C           -3.89080623        0.38695426       -0.11199909
 C           -1.31450006        2.73036919        0.56321659
 C           -2.59312106        2.32062166        0.19824893
 C            0.94765659        3.19875802       -0.12595145
 C            1.85882748        2.71480802       -1.07489196
 C           -0.41707183        3.17765161       -0.41190276
 C            1.47620865        2.66974268       -2.41378822
 C            2.62757354        0.53093793       -2.65637373
 C            2.19482252       -0.85254628       -2.58547255
 C            1.76115495        1.47148121       -3.18544675
 C            0.29270328       -2.27009433       -2.11147487
 C            0.84525720       -1.15914663       -2.76389470
 C           -1.66556498       -3.34531011       -1.19158098
 C           -2.98402084       -3.03233792       -0.67164493
 C           -3.65193316       -1.83345541       -1.14437427
 C           -1.08766629       -2.49229794       -2.13233422
 C           -3.20392821       -1.24734231       -2.32118475
 C           -1.91276768       -1.64640806       -2.86629103
 C           -3.66562979        0.99140898       -1.41635704
 C           -2.96465614        2.24904184       -1.20557298
 C           -3.33300468        0.18843418       -2.50191623
 C           -0.83070050        3.32156906       -1.73152408
 C            0.14393239        3.11772421       -2.78354101
 C           -2.07747943        2.71665296       -2.16506700
 C            0.50472498        1.01812537       -3.75416001
 C            0.02498241       -0.25528373       -3.44610266
 C           -1.34147953       -0.49781254       -3.54083751
 C           -2.28074271        0.60874422       -3.41122623
 C           -0.40880394        2.14521090       -3.71234615
 C           -1.79160222        1.90678996       -3.34096071
