   70
C70 / DATE: 7/ 1/2024 / Origin: Program Fullerene / C70 from database
 C            1.05229793       -0.04218705        4.67206336
 C            2.29099941       -0.35776542        4.00020340
 C            2.20050941       -1.73805001        3.55424695
 C            0.21005969       -1.22800871        4.61383690
 C            0.81700236       -2.13879255        3.66033252
 C           -1.14659154       -0.78538808        4.38139969
 C            0.26311946        1.06910768        4.18279083
 C           -1.12508122        0.66188829        4.24309658
 C            0.67919338        1.78912040        3.06618506
 C            2.68542821        0.43879235        2.85350134
 C            1.87420457        1.47050289        2.40434591
 C            2.82067140       -1.80937218        2.25555888
 C            3.23952507       -0.46947179        1.87197061
 C            2.23891319       -2.59374343        1.27512101
 C            0.12819548       -2.48444093        2.49383513
 C            0.85305858       -2.84113276        1.33879673
 C           -1.85446837       -1.31171504        3.23567452
 C           -1.25678430       -2.26969001        2.42044882
 C           -1.99026516        1.01610259        3.12877940
 C           -2.55938990       -0.20872507        2.60194148
 C           -0.28060851        2.52039356        2.37312529
 C           -1.55940885        1.97211057        2.22359280
 C            0.17087555        3.42004896        1.41875856
 C            2.06135480        1.92679159        1.10080252
 C            1.39969134        3.08584496        0.72072257
 C            3.18689781       -0.13560808        0.51556956
 C            2.51387547        1.03339000        0.12120091
 C            2.84698457       -2.50364166        0.03513747
 C            3.30600811       -1.18940436       -0.38795924
 C            2.23800473       -3.15515431       -1.09418591
 C            0.16461103       -3.29331730        0.19939195
 C            0.83856617       -3.49791258       -1.00165337
 C           -1.92947052       -2.58015220        1.24984151
 C           -1.21858821       -3.20552287        0.15635667
 C           -2.83593493       -0.30562811        1.23783129
 C           -2.82220934       -1.57891149        0.68512992
 C           -2.16507910        2.00027501        0.97029582
 C           -2.62425849        0.80462211        0.40479049
 C           -0.77349029        3.91399350        0.43810989
 C           -1.94760135        3.10919161        0.16875126
 C            1.20493363        3.37035423       -0.68662833
 C           -0.05559583        4.07901747       -0.80916342
 C            2.11037823        1.19985004       -1.21649087
 C            1.51999977        2.39997145       -1.63293302
 C            2.89546619       -1.00820025       -1.76306070
 C            2.41299809       -2.28574900       -2.24350855
 C            2.18690794        0.12888373       -2.11131537
 C            0.20855315       -3.09630797       -2.25217678
 C            1.17850099       -2.30285154       -2.99747753
 C           -1.87202863       -2.79813953       -1.07920331
 C           -2.80916411       -1.73349241       -0.74831119
 C           -1.13373871       -2.70754056       -2.25943182
 C           -2.67794397        0.66053737       -0.99583372
 C           -2.85964743       -0.61400299       -1.56190066
 C           -2.07476445        2.98811593       -1.26729004
 C           -0.94981853        3.69252154       -1.87699428
 C           -2.50355476        1.78518328       -1.82429189
 C            0.90274841        2.46832953       -2.88718667
 C           -0.38431568        3.14787537       -3.01648353
 C            1.33728568        0.08500509       -3.21732622
 C            0.74097379       -1.12939146       -3.59514904
 C            0.86365392        1.28625350       -3.73136136
 C           -1.56660674       -1.81798445       -3.24556803
 C           -2.57216587       -0.82495936       -2.90210047
 C           -0.57128549       -1.13160498       -4.04784504
 C           -2.33413943        1.62479928       -3.19960084
 C           -1.23188579        2.31601564       -3.84313332
 C           -0.39071446        1.31010137       -4.46108595
 C           -2.39729707        0.30535500       -3.78193056
 C           -1.16855050        0.09361460       -4.53495656
