   70
C70 / DATE: 7/ 1/2024 / Origin: Program Fullerene / C70 from database
 C            1.35581506       -0.10231851        4.47948828
 C            2.60468063       -0.27681219        3.76493636
 C            2.52767765       -1.54519063        3.05958887
 C            0.49720982       -1.23089953        4.14713844
 C            1.15546815       -1.99878783        3.11282623
 C           -0.82545811       -0.71165044        3.87931235
 C            0.58348024        1.10977693        4.27312692
 C           -0.80911435        0.71173323        4.16575428
 C            1.07642391        2.11400384        3.44394134
 C            3.02416120        0.73205162        2.80689270
 C            2.29903448        1.90759455        2.67607956
 C            3.12416738       -1.35821179        1.75664830
 C            3.47164848        0.03992147        1.61179662
 C            2.54513519       -1.97139085        0.65789687
 C            0.48922092       -2.23000751        1.91244198
 C            1.23195600       -2.45464366        0.75116281
 C           -1.51977179       -1.15183489        2.75841737
 C           -0.87827015       -1.96176601        1.80808266
 C           -2.67047081       -0.45633777        2.39657251
 C           -1.70435640        1.52667135        3.48597899
 C           -2.76516634        0.89968287        2.71415915
 C            0.15813437        2.88143773        2.61638478
 C           -1.20583586        2.64533698        2.69514385
 C            2.09677360        2.47179120        1.35310276
 C            0.76989222        3.05674243        1.31071344
 C            3.28964382        0.61229513        0.35429846
 C            2.55802075        1.80136986        0.22439566
 C            3.00831590       -1.57732197       -0.58936187
 C            3.37860059       -0.23290493       -0.75459095
 C            2.60573116       -2.34192752       -1.67492083
 C            0.56896335       -2.84350672       -0.41665108
 C            1.31525204       -2.99789279       -1.59003760
 C           -1.55022483       -2.30693984        0.63301422
 C           -0.82517359       -2.73642236       -0.48500597
 C           -3.46188386       -0.96034354        1.37482878
 C           -2.89822485       -1.96937585        0.49737008
 C           -4.21029024       -0.02646311        0.55124061
 C           -3.14781153        1.84628819        1.68034135
 C           -2.00486812        2.71640163        1.48244052
 C           -3.82652013        1.37297573        0.56962728
 C            0.01121271        2.89638564        0.15389823
 C           -1.38045069        2.74277742        0.23609431
 C            1.97857093        2.10998931       -1.00883340
 C            0.67233235        2.61504803       -1.04169812
 C            3.33406660        0.35917278       -2.01298447
 C            2.54801614        1.56670285       -2.15841595
 C            2.77751143       -1.84168525       -3.02267963
 C            3.13635604       -0.45342692       -3.19665157
 C            0.67276076       -2.87454309       -2.88946565
 C            1.53714001       -2.07762110       -3.74050540
 C           -1.46179656       -2.81177372       -1.72371347
 C           -0.68883748       -2.64076499       -2.93564020
 C           -3.46723066       -1.76921072       -0.82671136
 C           -4.14907879       -0.49172998       -0.82133749
 C           -2.70042823       -2.09138384       -1.93049332
 C           -3.32575579        1.70441395       -0.75552850
 C           -2.11710350        2.38507813       -0.89970261
 C           -3.61228399        0.58187863       -1.63739175
 C           -0.06328651        2.57748380       -2.21875020
 C           -1.49051138        2.34443440       -2.13988007
 C            1.76371486        1.44436025       -3.37692401
 C            2.10270873        0.17873790       -4.00014346
 C            1.04945801       -0.79709356       -4.22204560
 C            0.43842483        1.84314857       -3.36442371
 C           -1.17847107       -1.43010046       -3.58419499
 C           -2.42797541       -1.06513293       -2.93101223
 C           -2.70714389        0.27378280       -2.65027256
 C           -1.81322656        1.25981520       -3.05679605
 C           -0.27480397       -0.44161522       -3.97093595
 C           -0.59585489        0.89974760       -3.76743690
