   70
C70 / DATE: 7/ 1/2024 / Origin: Program Fullerene / C70 from database
 C            1.41749013       -0.16152725        4.54117509
 C            2.63551668       -0.32313962        3.76988577
 C            2.56491511       -1.60328304        3.08700646
 C            0.56584517       -1.31071225        4.27774512
 C            1.26187511       -2.18438353        3.34957836
 C           -0.74948256       -0.81923530        3.90702887
 C            0.61823518        1.03550035        4.34960938
 C           -0.75626342        0.61704982        4.11881697
 C            1.14284780        2.09989958        3.62318462
 C            2.98556431        0.68613303        2.78638700
 C            2.33638018        1.91167533        2.80312805
 C            2.95603610       -1.39966185        1.70283577
 C            3.19553387        0.01954252        1.51213538
 C            2.26890567       -2.08973123        0.71090428
 C            0.55554257       -2.70898253        2.27412928
 C            1.24579372       -2.95854325        1.08770630
 C           -1.36251063       -1.35384802        2.77661870
 C           -0.82584778       -2.51232583        2.21648915
 C           -2.23477258       -0.56860259        2.01378719
 C           -1.59412793        1.40555774        3.34367208
 C           -2.41789808        0.77491113        2.32575410
 C            0.24426157        2.98274701        2.89693345
 C           -1.10660191        2.66361539        2.80029797
 C            2.11961213        2.60697843        1.54805905
 C            0.95730568        3.45773956        1.72260424
 C            2.75156371        0.61573343        0.33375222
 C            2.29859445        1.93653454        0.33661513
 C            2.25952254       -1.56644483       -0.58086636
 C            2.46895067       -0.19302297       -0.76266685
 C            1.71773133       -2.33480107       -1.61440194
 C            0.60921198       -3.70202621        0.10311163
 C            0.85545415       -3.38050610       -1.29312006
 C           -1.54453675       -3.15760849        1.21841725
 C           -0.81084697       -3.95557392        0.25449108
 C           -2.65662821       -1.03104252        0.76592144
 C           -2.53505260       -2.39005787        0.48658778
 C           -2.86118280       -0.11729409       -0.27525248
 C           -2.59323843        1.72213674        1.24066724
 C           -1.81833932        2.90981879        1.55612317
 C           -2.62437383        1.24096703       -0.06541489
 C            0.24720174        3.83736279        0.59578786
 C           -1.18793418        3.59121718        0.52720202
 C            1.71449483        2.46068436       -0.82073538
 C            0.79199686        3.50404651       -0.70681259
 C            2.18312601        0.40081324       -1.98748213
 C            1.77126010        1.74005613       -2.01855615
 C            1.64491197       -1.79871968       -2.89578736
 C            2.04171336       -0.42077064       -3.10175147
 C            0.43269157       -2.01703224       -3.67102567
 C           -0.40539598       -3.49444564       -2.01151872
 C           -1.44287155       -3.79134740       -1.04220493
 C           -2.53937648       -2.85765058       -0.89080514
 C           -0.66512707       -2.59085427       -3.03702457
 C           -3.07256005       -0.57068175       -1.57126463
 C           -2.77730137       -1.95135729       -1.91012418
 C           -1.90308325       -1.93749347       -3.07605556
 C           -2.64341791        0.25972205       -2.68126977
 C           -2.01820831       -0.61233235       -3.66950848
 C           -2.17438533        2.04357509       -1.12236622
 C           -1.49630044        3.23179223       -0.84721191
 C           -0.32246353        3.56245297       -1.63120584
 C           -2.10562854        1.51825394       -2.41823663
 C            1.05557717        2.23361856       -3.11327566
 C           -0.17234512        2.96043251       -2.86423783
 C           -1.23811874        2.10075044       -3.34353692
 C            1.34124065        0.05470327       -4.27781275
 C            0.24949014       -0.86932570       -4.54025035
 C           -0.99217525       -0.12472935       -4.46633287
 C            0.79481537        1.38957456       -4.26240242
 C           -0.65281267        1.28349847       -4.39363076
