   70
C70 / DATE: 7/ 1/2024 / Origin: Program Fullerene / C70 from database
 C            1.24239986       -0.02008448        4.39350752
 C            2.55408345       -0.30069135        3.86347891
 C            2.55909593       -1.68877088        3.43640590
 C            0.40838078       -1.19569623        4.16920190
 C            1.17322500       -2.12300545        3.37386292
 C           -0.85850400       -0.72614762        3.65681598
 C            0.50999463        1.11309004        3.86983361
 C           -0.87740417        0.70622520        3.88437748
 C            0.98526599        1.80864841        2.75541137
 C            3.03350571        0.48784809        2.74837862
 C            2.21074285        1.45303635        2.16226311
 C            3.36478517       -1.77234218        2.23037274
 C            3.77832279       -0.41705275        1.89155365
 C            2.93772577       -2.62327402        1.22011196
 C            0.66911410       -2.56761658        2.15509250
 C            1.57300363       -3.12760961        1.26342806
 C           -1.34180483       -1.21291505        2.44194211
 C           -0.57046307       -2.10359350        1.67831064
 C           -2.38570278       -0.51333782        1.83514081
 C           -1.77875470        1.45686085        3.15941360
 C           -2.72424357        0.75015934        2.32248098
 C            0.08728386        2.62861663        2.06292264
 C           -1.27509370        2.55675442        2.35233709
 C            0.49147394        3.26672744        0.89845540
 C            2.53339494        1.91728978        0.88321091
 C            1.74108244        2.88123913        0.27682382
 C            3.96013563       -0.06744911        0.56079860
 C            3.41704868        1.19370836        0.08637449
 C            3.24091322       -2.30369405       -0.16552003
 C            3.75047735       -1.05698718       -0.48695533
 C            1.16100923       -3.38931237       -0.09162583
 C            2.18419395       -2.86769285       -0.98394904
 C           -1.00356077       -2.46066141        0.38903303
 C           -0.16367544       -3.21357905       -0.45074635
 C           -2.85370805       -0.90629932        0.58329032
 C           -2.20796556       -1.93349630       -0.10687794
 C           -3.79697586       -0.10874047       -0.07510332
 C           -3.26241931        1.73894714        1.41368646
 C           -2.24888516        2.78201179        1.29118328
 C           -3.91670002        1.29565031        0.28005605
 C           -0.47691013        3.52180877       -0.15881510
 C           -1.81463955        3.18711568        0.02806912
 C            1.53376624        2.82906035       -1.16408708
 C            0.16149880        3.22981789       -1.43351202
 C            3.13596926        1.04875999       -1.33220349
 C            3.24205413       -0.36559554       -1.65894954
 C            2.11918271        1.80657071       -1.90749289
 C            1.77456179       -2.23207189       -2.15617749
 C            2.26202598       -0.95113308       -2.45874365
 C           -0.41775519       -3.25380086       -1.81385173
 C            0.56672245       -2.66342563       -2.70680699
 C           -2.63727387       -2.24987200       -1.39640155
 C           -1.73024767       -2.91764683       -2.30008314
 C           -3.94865476       -0.20262247       -1.51726542
 C           -3.32263503       -1.24152866       -2.18102658
 C           -3.77093773        2.06487540       -0.93822467
 C           -2.59883417        2.90802344       -1.08885652
 C           -3.80870017        1.13783777       -2.05492933
 C           -0.56469703        2.59313697       -2.43568383
 C           -1.95292011        2.55055828       -2.34360067
 C           -2.67691172        1.42497179       -2.91800386
 C            1.45064139        1.29903990       -3.01818760
 C            1.55875475       -0.11897208       -3.32756828
 C            0.08485964        1.71603035       -3.29893627
 C           -0.14710812       -1.83651326       -3.66176335
 C           -1.56645963       -2.06918091       -3.47211965
 C           -2.45593844       -0.93384400       -3.31017562
 C           -1.96466227        0.36372373       -3.46846232
 C            0.29839666       -0.54981974       -3.90295883
 C           -0.63394616        0.56793224       -3.83196028
