   70
C70 / DATE: 7/ 1/2024 / Origin: Program Fullerene / C70 from database
 C            1.37292370       -0.15801137        5.15716233
 C            0.52043226       -1.32920513        5.18255804
 C            1.09040410       -2.32198398        4.28275049
 C            2.50447236       -0.45773405        4.29843437
 C            2.34724225       -1.80618520        3.78226071
 C            2.62667882        0.63197459        3.35026475
 C            0.62582428        0.92481565        4.53368877
 C            1.44285886        1.46562571        3.47704954
 C           -0.76584049       -0.94054969        4.63749231
 C           -0.68668278        0.43430366        4.18112610
 C            0.06176565       -2.69768414        3.32752597
 C           -1.13143447       -1.93867908        3.66113140
 C            0.39110702       -2.85622505        1.97340415
 C            2.67528884       -2.04130417        2.45448608
 C            1.71986204       -2.71563392        1.57996920
 C            3.08059291        0.35881908        2.06528620
 C            3.26893265       -0.96790563        1.67606824
 C            2.79086033        1.28406186        1.07072553
 C            0.83458303        1.88988708        2.30368490
 C            1.66424617        2.09709221        1.21882086
 C           -1.20256244        0.72582672        2.91674507
 C           -0.50797167        1.57912400        2.04941616
 C           -1.91654367       -1.54331745        2.60139307
 C           -2.10251299       -0.17789153        2.36428864
 C           -0.62946063       -2.72355879        1.01904495
 C           -1.89031045       -2.36264599        1.49286240
 C           -0.31406529       -2.47671151       -0.33188307
 C            2.02282778       -2.31233275        0.21674094
 C            3.08132053       -1.31885133        0.27656796
 C            0.98727467       -2.13054980       -0.69593413
 C            3.22122279        1.00659300       -0.21844135
 C            3.07339057       -0.30558566       -0.66898608
 C            3.11007742        2.03288878       -1.14408182
 C            1.12962844        2.68828437        0.08809504
 C            2.02598497        2.97589074       -0.93157310
 C           -1.01197786        1.78199975        0.74979856
 C           -0.21641969        2.43043877       -0.20969086
 C           -2.76835976        0.16729289        1.19255626
 C           -2.19254005        1.13525852        0.35128065
 C           -2.91176539       -2.16747783        0.59294509
 C           -3.51877622       -0.85367921        0.62042347
 C           -1.35012648       -2.30782657       -1.25687868
 C           -2.65958012       -2.44446529       -0.79583203
 C           -1.10166503       -1.64585273       -2.47086343
 C            1.20077034       -1.30030769       -1.80193158
 C            2.36600998       -0.52603129       -1.84950490
 C            0.15757861       -1.06960374       -2.70905159
 C            3.09042783        1.67680682       -2.54498566
 C            2.55713294        0.37251257       -2.88777613
 C            1.52383072        3.38332049       -2.21836128
 C            2.30827531        2.68769750       -3.22683100
 C           -0.70453626        2.61507169       -1.51350168
 C            0.12632172        3.14912444       -2.50826745
 C           -2.65837733        1.28341858       -0.96810318
 C           -1.90200188        2.00650118       -1.90265301
 C           -4.12749978       -0.64889535       -0.66586428
 C           -3.74866985       -1.79114379       -1.48962645
 C           -3.75882987        0.53245505       -1.40268195
 C           -2.16418259       -1.37451532       -3.34130713
 C           -3.50928681       -1.29074084       -2.81595293
 C           -3.84568520        0.12373191       -2.78815749
 C           -2.14861759        1.85324455       -3.27274707
 C           -2.06370215       -0.24994438       -4.23969945
 C           -2.98071872        0.76718327       -3.73739925
 C            0.33624022       -0.17607483       -3.78216677
 C            1.50805744        0.56753057       -3.86586863
 C            1.37406578        1.99993117       -4.08908307
 C            0.07359240        2.59098545       -3.85134188
 C           -0.78284614        0.39520144       -4.38095560
 C           -1.01855609        1.81421103       -4.16806425
