   70
C70 / DATE: 7/ 1/2024 / Origin: Program Fullerene / C70 from database
 C            1.67987952       -0.09656952        5.05005546
 C            0.82460526       -1.25641857        5.21723846
 C            1.27750479       -2.27239083        4.28764517
 C            2.61164342       -0.37670007        3.96866752
 C            2.33268332       -1.70178813        3.46374568
 C            2.54893995        0.72914076        3.03969126
 C            0.84411652        1.00885558        4.61951067
 C            1.49485653        1.62237565        3.48418430
 C           -0.52098134       -0.88160817        4.81631987
 C           -0.50483173        0.51859274        4.43088353
 C            0.10401531       -2.80139966        3.61822231
 C           -0.98116774       -1.85560728        3.83985822
 C            0.27541303       -3.30525869        2.34077222
 C            2.26754975       -1.89881241        2.08596469
 C            1.49359567       -2.95803016        1.62521924
 C            2.63247927        0.47458781        1.67341100
 C            2.56536130       -0.84525676        1.20716335
 C            2.24636248        1.50067021        0.80910217
 C            0.70623799        2.18687039        2.49493847
 C            1.32294829        2.43873805        1.28039333
 C           -1.17645358        0.88629460        3.26957713
 C           -0.67117778        1.92947080        2.48479011
 C           -1.71383627       -1.39743781        2.74486257
 C           -2.03079364       -0.03895042        2.67703689
 C           -0.80744420       -3.16440502        1.38697334
 C           -1.75857941       -2.16868245        1.57706675
 C            1.20049718       -3.05968862        0.21233860
 C           -0.21948452       -3.31781442        0.07263984
 C            2.46689848       -1.05153756       -0.17320863
 C            1.78176535       -2.16664693       -0.67183090
 C            2.41060049        1.31700692       -0.56526330
 C            2.69075485        0.02746830       -1.02931134
 C            1.96707246        2.31018922       -1.44921733
 C            0.63119217        3.22612069        0.38256503
 C            1.03176418        3.23766394       -1.00578902
 C           -1.42797710        2.37531554        1.39078011
 C           -0.81807133        3.18773458        0.43382843
 C           -2.86502019        0.40033205        1.66311218
 C           -2.59282591        1.68886035        1.04748460
 C           -2.45193619       -1.68723351        0.46431138
 C           -3.20352311       -0.52375409        0.60085418
 C           -0.86969132       -2.75884143       -1.01678057
 C           -2.10255707       -2.13192228       -0.81686576
 C            1.24939272       -2.10433812       -1.95815260
 C           -0.10427487       -2.41626146       -2.13320512
 C            2.71993101       -0.22526244       -2.39648711
 C            1.91305488       -1.32067148       -2.89474192
 C            2.12718328        2.14711723       -2.82180254
 C            2.59964906        0.87709467       -3.32585034
 C            1.06475555        2.60286694       -3.70485735
 C           -0.16462109        3.47649243       -1.79516064
 C           -1.29892247        3.17616043       -0.94072625
 C           -0.18316606        3.05529448       -3.11373866
 C           -3.00120473        1.60326005       -0.34988115
 C           -3.52967896        0.26791163       -0.57166380
 C           -2.22543567        2.21522593       -1.33190449
 C           -2.78211161       -1.61969399       -1.92074850
 C           -3.39634230       -0.30662015       -1.82240511
 C           -0.75976993       -2.06686494       -3.30893880
 C           -2.16272519       -1.71079760       -3.23281855
 C            1.22407049       -0.86748380       -4.09117601
 C            1.71615284        0.46265041       -4.40554318
 C            0.76019433        1.52889097       -4.63378286
 C           -0.12567099       -1.15799898       -4.24654470
 C           -1.23284391        2.14612501       -3.54445281
 C           -2.17056256        1.67184233       -2.62185458
 C           -2.86778450        0.49789035       -2.90818833
 C           -2.32813954       -0.42466199       -3.89024135
 C           -0.65659283        1.23323131       -4.52451241
 C           -1.07692204       -0.09093260       -4.54356208
