   70
C70 / DATE: 7/ 1/2024 / Origin: Program Fullerene / C70 from database
 C            1.32202571        0.02552354        4.74283194
 C            2.58417350       -0.06310060        4.03513643
 C            2.64105278       -1.36914858        3.40369626
 C            0.50730890       -1.11370207        4.34653219
 C            1.31563070       -1.95680175        3.49052461
 C           -0.74876996       -0.60752438        3.82409842
 C            0.51761462        1.21415756        4.56748090
 C           -0.82112227        0.79023212        4.18246647
 C            0.93502524        2.21264341        3.59896095
 C            2.89684585        0.92209183        3.01258128
 C            1.98937903        1.94309137        2.72126229
 C            3.23205611       -1.20160370        2.08126047
 C            3.54342311        0.20917835        1.92420902
 C            2.67171760       -1.90184887        1.01244966
 C            0.76051763       -2.45248702        2.32117433
 C            1.63131802       -2.78662721        1.29552734
 C           -1.14860796       -1.00165741        2.54946363
 C           -0.55634330       -2.12507449        1.98037976
 C           -1.85132813       -0.11704226        1.72630100
 C           -1.29573610        1.72823640        3.18878781
 C           -0.29145116        2.77121236        3.07186261
 C           -1.89113962        1.25196678        2.02347746
 C           -0.23537480        3.47827922        1.88715170
 C            1.99689075        2.53318421        1.45144350
 C            0.98571305        3.42393840        1.09680592
 C            3.51733940        0.76170752        0.65585304
 C            2.80840147        2.01119446        0.44470552
 C            2.79725458       -1.39868455       -0.29037694
 C            3.24238061       -0.09418732       -0.48644397
 C            2.11614906       -2.03808132       -1.33033842
 C            1.12184033       -3.56108149        0.27289018
 C            1.59319694       -3.30083223       -1.06572611
 C           -1.06555936       -2.63359807        0.78555711
 C           -0.32084299       -3.63726365        0.17171626
 C           -2.26277911       -0.54808768        0.46279327
 C           -1.91580006       -1.83143113        0.00780111
 C           -2.87853638        0.36134313       -0.39895005
 C           -2.10158360        2.16122120        0.98897608
 C           -1.33204288        3.32650976        0.95271702
 C           -2.72082886        1.73550024       -0.18344627
 C            0.59686592        3.53977979       -0.30413960
 C           -0.83361109        3.79651324       -0.32293407
 C            2.33915095        2.02313800       -0.93380809
 C            2.59594804        0.71575303       -1.50210382
 C            1.15064864        2.66874576       -1.24326376
 C            1.58183157       -1.26470846       -2.37473416
 C            1.62965840        0.12468757       -2.30198658
 C            0.79509278       -1.84738688       -3.36152085
 C            0.61137747       -3.88655270       -1.95443813
 C           -0.62036825       -4.02678043       -1.18530348
 C            0.28601173       -3.19090205       -3.17657923
 C           -2.32767872       -2.26439078       -1.26698523
 C           -1.65629128       -3.31529891       -1.89336976
 C           -1.15997263       -3.10947166       -3.23981331
 C           -3.45374921       -0.10162244       -1.57732671
 C           -3.06443549       -1.40366290       -2.08165273
 C           -3.54646220        0.78306024       -2.72284194
 C           -2.71117889        2.61289541       -1.26970807
 C           -1.55013218        3.45666274       -1.45217882
 C           -3.05153279        2.13297937       -2.59045612
 C            0.35730011        2.19150952       -2.29206495
 C            0.55469157        0.88586842       -2.77900366
 C           -0.83174910        2.86442781       -2.56100489
 C           -1.83734379        2.24203531       -3.39387018
 C           -0.27476172       -1.06272219       -3.95165828
 C           -1.49601154       -1.86393353       -3.88899555
 C           -2.65738307       -1.23413473       -3.47631016
 C           -2.79028102        0.16831299       -3.79442772
 C           -0.35504718        0.30674640       -3.68311455
 C           -1.56999550        0.93710599       -3.94799939
