   70
C70 / DATE: 7/ 1/2024 / Origin: Program Fullerene / C70 from database
 C            1.65191064        0.08195762        4.61381641
 C            0.83979949       -1.11693192        4.51120444
 C            1.47212223       -2.00507516        3.55394932
 C            2.69410534        0.00011938        3.60536274
 C            2.63697494       -1.31752478        3.01110797
 C            2.56672666        1.14531093        2.72809021
 C            0.80840415        1.21292416        4.27901873
 C            1.44986714        1.94410717        3.20263470
 C           -0.53173075       -0.71257800        4.27598410
 C           -0.53953686        0.72503853        4.05442492
 C           -1.32174096       -1.51542178        3.47137671
 C            0.67486789       -2.75533965        2.68934394
 C           -0.71468692       -2.63161664        2.75485025
 C            1.26017695       -3.25244812        1.52830475
 C            2.90475810       -1.45037708        1.65439439
 C            2.47086879       -2.61787283        1.03664862
 C            2.70688770        0.95091763        1.35572951
 C            3.10736217       -0.30159270        0.87759964
 C            2.10819851        1.86564958        0.48096070
 C            0.64060107        2.54614081        2.25155742
 C            1.18089118        2.77752046        0.99050382
 C           -1.24780160        1.25685018        2.97881920
 C           -0.74421073        2.40255848        2.36564399
 C           -2.27451223       -0.88948796        2.57307753
 C           -2.16189928        0.46285036        2.27703541
 C           -1.52457003       -2.87295343        1.56957781
 C           -2.52988031       -1.82085114        1.49487404
 C            0.43746523       -3.58668776        0.37556870
 C           -0.93066373       -3.32843606        0.39520798
 C            2.47992893       -2.71897183       -0.41021745
 C            1.20933006       -3.28884142       -0.82437696
 C            3.37025302       -0.44139707       -0.48024519
 C            3.02977423       -1.68804295       -1.14996581
 C            2.26215066        1.70815881       -0.90206871
 C            3.02742208        0.64730715       -1.37916483
 C            1.48180331        2.45346827       -1.79475747
 C            0.48008593        3.60519488        0.12725425
 C            0.59217047        3.40114866       -1.30237907
 C           -1.55303749        3.06436192        1.45226980
 C           -0.91315701        3.87285635        0.43083805
 C           -2.71053013        0.94234733        1.08502284
 C           -2.61268442        2.30670637        0.81223811
 C           -2.89663241       -1.33262710        0.24755002
 C           -3.05569034        0.04566927        0.06310091
 C           -1.59468741       -3.11796488       -0.81056888
 C           -2.68235526       -2.15490548       -0.85506209
 C            0.55572089       -2.79191242       -1.94897855
 C           -0.82401098       -2.95678933       -2.03279214
 C            2.44228187       -1.35198366       -2.43239137
 C            2.71117069        0.05735118       -2.66669328
 C            1.20611394       -1.88782591       -2.79764630
 C            1.27827491        1.99144945       -3.09556792
 C            1.89986109        0.75657614       -3.54381839
 C           -0.06318825        2.04972856       -3.65647618
 C           -0.74576655        3.46933625       -1.87297788
 C           -1.67807460        3.73706293       -0.79484534
 C           -2.75074703        2.79471582       -0.55089957
 C           -1.09128331        2.56302965       -2.87072022
 C           -3.39103011        0.52931707       -1.20160895
 C           -3.08809343        1.90362866       -1.55430767
 C           -2.31124514        1.87997775       -2.78862319
 C           -2.73923329       -1.60688244       -2.19938261
 C           -1.60436342       -2.13532570       -2.94199174
 C           -3.12929049       -0.28748866       -2.37419750
 C           -2.45212160        0.54514762       -3.35758936
 C            0.50685101       -1.29682711       -3.84908058
 C            0.91405450        0.01816560       -4.31367488
 C           -0.27806560        0.84137040       -4.43010068
 C           -0.94521048       -1.33517955       -3.86254938
 C           -1.42750357        0.01213915       -4.12922182
