   70
C70 / DATE: 7/ 1/2024 / Origin: Program Fullerene / C70 from database
 C            1.39840098        0.08937376        4.82736641
 C            0.60263229       -1.11604094        4.66987956
 C            1.41251337       -2.09481687        3.98284091
 C            2.61397762       -0.08344128        4.05306138
 C            2.66599832       -1.45710075        3.60979062
 C            2.64775929        0.95829849        3.04793355
 C            0.65324265        1.19116230        4.24015557
 C            1.45560409        1.77289092        3.18755771
 C           -0.66142476       -0.73465703        4.07399544
 C           -0.65930145        0.70326403        3.88972679
 C           -1.21627271       -1.50658309        3.05624517
 C            0.87090765       -2.72086052        2.79229512
 C           -0.44712030       -2.49452237        2.41696036
 C            2.88337943       -1.71416546        2.19874703
 C            1.88441560       -2.66725416        1.75977444
 C            3.06557337        0.66368151        1.75751946
 C            3.20363423       -0.66988171        1.33690435
 C            2.80681231        1.62222328        0.78745393
 C            0.82375993        2.20101358        2.02073329
 C            1.59417443        2.32325323        0.86408335
 C           -1.26624390        1.19047496        2.74094444
 C           -0.56357595        2.06107860        1.89275410
 C           -2.28285341       -0.94670366        2.35057568
 C           -2.31489698        0.44584971        2.20960236
 C           -2.93756454       -1.75492321        1.42717644
 C           -0.82443258       -2.90010105        1.13954668
 C           -2.17537841       -2.83197267        0.83234951
 C            1.47528192       -2.61513540        0.43028011
 C            0.13402407       -2.87168088        0.11113221
 C            3.15103370       -0.93512285       -0.03361767
 C            2.27571110       -1.93177285       -0.48659171
 C            3.41691987        1.44009873       -0.44174799
 C            3.55972955        0.07574208       -0.90199463
 C            3.00836875        2.25829967       -1.55891818
 C            0.99527598        2.82254027       -0.29520870
 C            1.75778551        2.97618782       -1.45154462
 C           -1.18109213        2.48733400        0.71173996
 C           -0.39824469        2.90625222       -0.37028718
 C           -3.08807507        1.03757881        1.22174000
 C           -2.52384096        2.16587656        0.50635564
 C           -3.76085977       -1.16301324        0.38723392
 C           -3.81027916        0.21540683        0.26641900
 C           -2.60406229       -2.98546247       -0.53699810
 C           -3.60703713       -1.96811563       -0.80819219
 C           -0.25815241       -2.89015085       -1.23803199
 C           -1.60577695       -2.91842108       -1.57901214
 C            1.96510444       -2.03048476       -1.83683610
 C            0.64267511       -2.48841489       -2.21911540
 C            3.18258895        0.03845614       -2.30454350
 C            2.92640123        1.40101245       -2.73111392
 C            2.35339647       -0.97436566       -2.75423903
 C            1.11485617        2.87904489       -2.74655474
 C            1.67858769        1.70880171       -3.40645896
 C           -1.00804682        3.21234203       -1.59073958
 C           -0.24877609        3.09802568       -2.82627822
 C           -3.07184956        2.14704643       -0.83765522
 C           -3.67354101        0.83527398       -1.04542890
 C           -2.35435654        2.73714829       -1.86273107
 C           -3.25225621       -1.31751630       -2.05574392
 C           -2.09286501       -2.00562737       -2.60190307
 C           -3.32266193        0.06733986       -2.16192774
 C            0.17109838       -1.64646833       -3.31090231
 C            1.19863931       -0.65296649       -3.58319835
 C            0.83365094        0.67378233       -3.80951213
 C           -1.17479223       -1.28847417       -3.36689400
 C           -1.01994942        2.27170000       -3.73500812
 C           -2.33688893        2.08258859       -3.15559162
 C           -2.65901030        0.66946277       -3.22515102
 C           -0.49449156        0.96749008       -4.10158072
 C           -1.52794357       -0.02117859       -3.82962178
