   70
C70 / DATE: 7/ 1/2024 / Origin: Program Fullerene / C70 from database
 C            1.61416163        0.00160378        4.49138915
 C            0.80894292       -1.19361651        4.31955469
 C            1.35884759       -1.95752028        3.21100001
 C            2.65437192       -0.02196470        3.48226083
 C            2.57171457       -1.28697873        2.77738323
 C            2.55428578        1.19395512        2.69579966
 C            0.76402513        1.14480011        4.21565926
 C            1.34342162        1.88031575        3.10583868
 C           -0.57847397       -0.78234753        4.24827203
 C           -0.59897375        0.66433523        4.08244385
 C           -1.43816157       -1.54476625        3.47450600
 C            0.48656846       -2.47593952        2.25086655
 C           -0.87323168       -2.51068830        2.54077537
 C            0.91600252       -2.58948983        0.92176511
 C            2.86700337       -1.28666404        1.42552848
 C            2.22425796       -2.21206984        0.61091441
 C            2.83753344        1.10622481        1.33806022
 C            3.32661104       -0.10267266        0.85016305
 C            2.19441097        1.97036974        0.44982222
 C            0.49368990        2.36477917        2.12109670
 C            0.99689701        2.59117196        0.83803875
 C           -1.40073966        1.21624489        3.08692673
 C           -0.88397477        2.25455010        2.30280528
 C           -2.53391909       -0.88353749        2.79035538
 C           -2.51354465        0.49705958        2.63855275
 C           -1.82604813       -2.68180193        1.46663745
 C           -2.89668053       -1.71084362        1.65307768
 C           -0.00825505       -2.83862076       -0.11065260
 C           -1.37945138       -2.93883355        0.18034381
 C            0.43724213       -2.94018960       -1.44096445
 C            2.70128792       -2.37795300       -0.67944491
 C            1.77031133       -2.69274843       -1.74182358
 C            3.78355396       -0.14645148       -0.45787822
 C            3.63929179       -1.39273989       -1.18878015
 C            2.57342724        1.94959449       -0.89535181
 C            3.41943116        0.93678025       -1.35450774
 C            1.87028434        2.71423244       -1.81735645
 C            0.18649279        3.23030803       -0.10814921
 C            0.59157788        3.27717732       -1.43793171
 C           -1.71954558        2.91816056        1.41836518
 C           -1.17860191        3.36121189        0.14620230
 C           -3.35007106        1.05865049        1.68247444
 C           -3.04171371        2.37910975        1.17243177
 C           -3.48185189       -1.12103626        0.53149107
 C           -3.79317747        0.24045809        0.56145842
 C           -2.31473141       -2.78744847       -0.83503364
 C           -3.31702564       -1.74271313       -0.70557754
 C           -0.46955017       -2.82176046       -2.48848472
 C           -1.88587883       -2.81454037       -2.21214393
 C           -0.22096321       -1.82509109       -3.51671142
 C            2.08417853       -1.84426862       -2.88548216
 C            3.26757758       -1.07443258       -2.55521973
 C            3.21765762        0.36664400       -2.68128330
 C            1.04127437       -1.24120145       -3.58938396
 C            1.74550780        2.23795831       -3.18470235
 C            2.25977491        0.92299396       -3.51313907
 C            1.13565431        0.10542819       -3.95911703
 C           -0.37317123        2.90856662       -2.46334585
 C            0.33745278        2.27062453       -3.54111456
 C           -0.05979011        0.93751037       -3.91998721
 C           -2.11404750        2.96421942       -0.89493900
 C           -3.26454524        2.37029287       -0.26385490
 C           -3.63610000        1.03246158       -0.65099890
 C           -1.59769985        2.39959649       -2.05325344
 C           -3.22933320       -0.92268949       -1.90320414
 C           -2.46238138       -1.65662146       -2.87954881
 C           -1.39734237       -0.97273963       -3.57097776
 C           -1.23510310        0.39703248       -3.40997137
 C           -3.04054305        0.44570050       -1.76138271
 C           -1.96010210        1.08285811       -2.41056218
