   70
C70 / DATE: 7/ 1/2024 / Origin: Program Fullerene / C70 from database
 C            1.17835678        0.04391421        4.33297354
 C            2.44082682       -0.27069898        3.71247794
 C            2.32814633       -1.60892929        3.14679862
 C            0.32536557       -1.12439328        4.18976648
 C            0.93279114       -1.98469052        3.20220280
 C           -1.01067297       -0.65018096        3.92940647
 C            0.42863233        1.18269428        3.84285544
 C           -0.97371300        0.80307774        3.86551917
 C            0.90509209        1.93448542        2.77096060
 C            2.92636040        0.58973228        2.65369617
 C            2.09688271        1.58047600        2.11878057
 C            2.98175871       -1.57740607        1.85799588
 C            3.63649354       -0.28741224        1.74665194
 C            2.31833659       -2.07217780        0.74242143
 C            0.24467914       -2.22233546        2.01337746
 C            0.95567692       -2.40683155        0.82467098
 C           -1.78463328       -1.30760525        2.98970417
 C           -1.14196081       -2.02850718        1.96404886
 C           -2.99880128       -0.70368497        2.72096638
 C           -1.87638393        1.45032191        3.01725489
 C           -3.01368079        0.74638072        2.61153931
 C            0.00855500        2.78661092        2.14389111
 C           -1.41965821        2.50613002        2.22435897
 C            0.29292824        3.27762891        0.81224848
 C            2.36849831        2.05641526        0.82639238
 C            1.48725186        2.93911253        0.18911700
 C            3.92554166        0.18509554        0.47993899
 C            3.42526728        1.49487297        0.10593663
 C            2.88354517       -1.81450330       -0.50449549
 C            3.69112012       -0.68886825       -0.65911074
 C            2.30316090       -2.37676523       -1.62991495
 C            0.26979759       -2.78003886       -0.33163993
 C            1.00594720       -3.00944277       -1.49173008
 C           -1.83756734       -2.34925034        0.78677763
 C           -1.12579088       -2.63012402       -0.39317634
 C           -3.83084067       -1.24365622        1.67650384
 C           -3.21899422       -2.14665079        0.73008723
 C           -3.62428479        1.05571504        1.33034778
 C           -4.36510380       -0.11959763        0.92296791
 C           -1.98361771        2.70673743        0.89545626
 C           -0.93709229        3.21561788        0.03792927
 C           -2.89084979        1.78442227        0.39825463
 C           -0.86455579        2.80029755       -1.28322384
 C            1.55421286        3.11465363       -1.19470891
 C            0.31428761        3.09522247       -1.95531222
 C            3.41296055        1.53721069       -1.34390147
 C            3.50375051        0.16256381       -1.82289461
 C            2.56593299        2.42709372       -1.97786177
 C            2.29566342       -1.61942614       -2.87314143
 C            2.68074842       -0.28044134       -2.85725439
 C            0.35005435       -2.92508917       -2.77472247
 C            1.11391244       -2.01531127       -3.61503886
 C           -1.78050020       -2.56465658       -1.64078545
 C           -1.02564499       -2.50184122       -2.80147894
 C           -3.83264830       -1.85053415       -0.54265061
 C           -4.35287082       -0.49369901       -0.46970330
 C           -3.00519739       -1.92151375       -1.71691560
 C           -2.75753387        1.32735053       -0.92320851
 C           -1.66085425        1.72317866       -1.70237813
 C           -3.57865099        0.30739259       -1.39842198
 C           -3.03613423       -0.62067813       -2.36553275
 C            0.21415802       -0.98659792       -4.10374413
 C           -1.11055996       -1.27951986       -3.58391798
 C           -1.34637352        1.00651781       -2.87467857
 C           -1.91851627       -0.24856387       -3.10084273
 C            0.57897629        2.48332492       -3.23433250
 C            1.96642712        2.04411438       -3.24198908
 C            1.98413274        0.64642455       -3.63573631
 C           -0.24295056        1.36800863       -3.64392169
 C            0.65040719        0.32882809       -4.12591145
