   70
C70 / DATE: 7/ 1/2024 / Origin: Program Fullerene / C70 from database
 C            1.21757168       -0.25911833        4.37602096
 C            2.50714270       -0.60648744        3.82437537
 C            2.43262124       -1.97022593        3.32418321
 C            0.38847254       -1.45365024        4.34853022
 C            1.10671775       -2.48334518        3.62248026
 C           -0.92998755       -1.05955797        3.88922005
 C            0.46456042        0.81843743        3.75492536
 C           -0.91551299        0.38204422        3.68439735
 C            1.01056143        1.51421962        2.67636463
 C            3.03428734        0.21487187        2.75775557
 C            2.37935591        1.38930126        2.39753674
 C            2.89551689       -1.96301528        1.94285523
 C            3.47717851       -0.66422722        1.68940461
 C            2.10920877       -2.54502389        0.96201734
 C            0.43673807       -3.20474673        2.64512647
 C            1.06327642       -3.38447189        1.34604610
 C           -1.61826397       -1.85903686        2.97820961
 C           -0.98156990       -2.96457238        2.40814526
 C           -2.70950634       -1.29730493        2.32210552
 C           -1.74501383        0.91658063        2.70957518
 C           -2.83400072        0.15017040        2.30520370
 C            0.14561405        2.05676203        1.71480840
 C           -1.23918699        1.88939195        1.84471314
 C            0.66552764        2.77531759        0.63298282
 C            2.89570280        2.04496644        1.28941471
 C            2.04008391        2.92666228        0.52655548
 C            3.47564938       -0.14307325        0.40075902
 C            3.62026784        1.23605238        0.32344512
 C            2.15643776       -2.04700327       -0.34216522
 C            2.75779126       -0.80684989       -0.61086553
 C            1.39663671       -2.67368880       -1.32303395
 C            0.00712626       -3.69640909        0.40227064
 C           -1.25426960       -3.31944347        1.01997616
 C            0.20952744       -3.41771319       -0.93640660
 C           -3.07611783       -1.77248587        0.99857315
 C           -2.18889759       -2.58303792        0.29666698
 C           -3.57639437        0.51979595        1.11358306
 C           -3.76382423       -0.68723847        0.32089051
 C           -2.09098710        2.45241525        0.89747971
 C           -3.27748797        1.71969347        0.48422459
 C           -0.15351480        3.09868307       -0.45433416
 C           -1.53191101        3.09311078       -0.27900235
 C            0.38220405        3.20416238       -1.74700989
 C            2.63159584        3.02987136       -0.79002998
 C            3.51748790        1.88636934       -0.95677306
 C            1.75331724        3.05774178       -1.93842345
 C            2.54317378       -0.17601869       -1.85412353
 C            3.02022825        1.11658062       -2.07267021
 C            2.22541998        2.03566706       -2.86084331
 C            1.08778890       -1.96903929       -2.54851011
 C            1.65952362       -0.72894664       -2.78960170
 C           -0.89737589       -2.90723319       -1.72207162
 C           -2.03767651       -2.42505322       -1.08635478
 C           -0.32852108       -2.15857494       -2.82942514
 C           -3.71335659       -0.61829477       -1.06253267
 C           -2.86748149       -1.55252027       -1.78566449
 C           -3.38354008        1.81998525       -0.96150885
 C           -2.40029108        2.79405642       -1.40541439
 C           -3.61399526        0.67562518       -1.71848902
 C           -0.44166599        3.00806474       -2.85397877
 C           -1.84498998        2.68397255       -2.67137454
 C            1.32924749        1.51466545       -3.77777274
 C            1.06211717        0.08492382       -3.75408781
 C            0.05641865        2.19362538       -3.94826598
 C           -1.04994533       -1.11316122       -3.39882974
 C           -2.35812812       -0.87278592       -2.96911140
 C           -2.89858085        0.48184441       -2.96848603
 C           -2.14404936        1.52013469       -3.49582335
 C           -0.34568765       -0.11473991       -4.06833539
 C           -0.95036557        1.19232854       -4.24950247
