   70
C70 / DATE: 7/ 1/2024 / Origin: Program Fullerene / C70 from database
 C            1.31331282       -0.05224886        5.01503652
 C            0.55603870       -1.22720665        4.61398415
 C            1.45137472       -2.09758140        3.89611888
 C            2.58699285       -0.09002662        4.31798268
 C            2.70767173       -1.38414782        3.69375314
 C            2.66338821        1.08277873        3.47404698
 C            0.59050855        1.11908283        4.54988182
 C            1.45621166        1.86986017        3.67214356
 C           -0.64475653       -0.77417444        3.94142378
 C           -0.67027883        0.67434723        4.01708419
 C           -1.06215378       -1.37173387        2.74586218
 C            1.03074324       -2.60030629        2.60509352
 C           -0.24171628       -2.30870998        2.09691999
 C            3.01660279       -1.44201955        2.27622586
 C            2.16573779       -2.46663398        1.71494245
 C            3.16452293        0.98379114        2.17947819
 C            3.21026324       -0.27242101        1.54158820
 C            3.01931141        2.12514546        1.40199803
 C            0.90601979        2.50856569        2.56042047
 C            1.79685899        2.89898096        1.56315186
 C           -1.20602536        1.34121406        2.93205966
 C           -0.43768728        2.27526574        2.21759043
 C           -2.02182645       -0.68855480        1.99557902
 C           -2.20416773        0.67727420        2.24543692
 C           -2.45182500       -1.23112494        0.78359835
 C           -0.45582078       -2.57989254        0.73818678
 C           -1.61162081       -2.10881193        0.10040621
 C            1.89082996       -2.43368546        0.36317930
 C            0.65707848       -2.92072369       -0.03285132
 C            3.10959416       -0.35714634        0.14433132
 C            2.50080966       -1.47267132       -0.44541531
 C            3.32792304        2.06442136       -0.00644466
 C            3.36282841        0.76397125       -0.63514594
 C            1.29990860        3.21708628        0.23790474
 C            2.33903212        2.86659901       -0.70612988
 C           -0.91927824        2.70880951        0.97082305
 C           -0.02054360        2.92262085       -0.07396484
 C           -2.95613863        1.43455660        1.37146920
 C           -2.26171077        2.49494108        0.66583984
 C           -3.50495112       -0.62140809        0.11172815
 C           -3.81883985        0.75372189        0.43654814
 C           -3.61007995       -0.75645706       -1.32717390
 C           -1.78575445       -2.33697085       -1.27491653
 C           -2.76328090       -1.63357198       -1.99912239
 C            0.49624202       -3.19023644       -1.37590878
 C           -0.82795071       -3.09719706       -1.94535245
 C            2.14521272       -1.44344355       -1.80130056
 C            1.40117175       -2.51963000       -2.29184301
 C            2.69831301        0.89374376       -1.91699925
 C            1.96188116        2.14326025       -1.89714163
 C            2.06783182       -0.21408485       -2.46763380
 C           -0.36274739        2.54879867       -1.38368584
 C            0.62834319        2.10430759       -2.27251062
 C           -2.67754588        2.43528837       -0.72422975
 C           -3.80112220        1.51716854       -0.79404977
 C           -3.84395203        0.57310298       -1.88670742
 C           -1.71264074        2.39518479       -1.72840544
 C           -3.18566240        0.91634294       -3.05474641
 C           -2.05029652        1.83145681       -2.96500423
 C           -2.64845492       -1.48355461       -3.38490721
 C           -2.81269729       -0.15882992       -3.95058243
 C           -0.63314192       -2.93562479       -3.37154681
 C            0.70380372       -2.39002178       -3.55804145
 C           -1.55045155       -2.09575716       -4.10230273
 C            1.02290747        0.01035469       -3.36984588
 C            0.27946106        1.19531561       -3.26139688
 C           -0.99471561        1.29339223       -3.80164484
 C           -1.54954148        0.19824986       -4.56940372
 C            0.54729067       -1.06546029       -4.11410725
 C           -0.77664547       -1.01693123       -4.70135463
