   70
C70 / DATE: 7/ 1/2024 / Origin: Program Fullerene / C70 from database
 C            1.18386755       -0.01009617        4.35532914
 C            2.44978028       -0.27898800        3.71406661
 C            2.39750408       -1.63472984        3.18647062
 C            0.34662138       -1.18916528        4.19274246
 C            1.02070022       -2.07852696        3.27516639
 C           -0.98433376       -0.73426098        3.85422941
 C            0.40741282        1.12909066        3.90884575
 C           -0.98432658        0.71837142        3.92080704
 C            0.86002253        1.92136484        2.85629685
 C            2.86845817        0.57822414        2.62470747
 C            1.98429667        1.53087699        2.11230942
 C            3.03385586       -1.61322761        1.87915585
 C            3.58487169       -0.28083430        1.70312532
 C            2.38988825       -2.21973669        0.80050157
 C            0.37655532       -2.45681575        2.10445106
 C            1.15350083       -2.83473836        1.01085875
 C           -1.67464106       -1.34448090        2.81373095
 C           -0.98525326       -2.17673168        1.91738707
 C           -2.84787271       -0.72270529        2.39829247
 C           -1.90010778        1.41508379        3.13700892
 C           -2.99125386        0.70627991        2.63570101
 C           -0.04773514        2.81554682        2.30245782
 C           -1.47414214        2.58090291        2.49293069
 C            0.14740926        3.28187277        0.94405898
 C            2.12684172        1.93878032        0.77881678
 C            1.12091371        2.67795174        0.15756139
 C            3.79240211        0.17181476        0.41473849
 C            3.16070184        1.41571231        0.00858101
 C            2.76972139       -1.86328765       -0.49822497
 C            3.60106089       -0.75882733       -0.68035139
 C            2.09394358       -2.40728960       -1.59568826
 C            0.53550161       -3.48712615       -0.04268051
 C            1.09038317       -3.34711294       -1.37567290
 C           -1.58798234       -2.53934262        0.70867370
 C           -0.90941115       -3.39914128       -0.14938995
 C           -3.38602743       -1.00861464        1.08223722
 C           -2.62338770       -1.75647463        0.19885466
 C           -3.78597411        1.25973908        1.55548634
 C           -4.03963618        0.19371453        0.59889611
 C           -2.16567243        3.07524870        1.30859710
 C           -1.15998705        3.57115836        0.38178601
 C           -3.28149201        2.40412923        0.82429993
 C           -1.34819130        3.42774443       -0.98405942
 C            0.97794918        2.65029911       -1.23657338
 C           -0.20493454        3.10489227       -1.82010400
 C            3.01270606        1.36733675       -1.43476905
 C            3.45644368        0.04843880       -1.87243925
 C            1.89460733        1.94865791       -2.02633310
 C            2.20301375       -1.80535648       -2.85466605
 C            2.87679579       -0.52294246       -2.99206994
 C            1.06196325       -1.80779228       -3.76320056
 C           -0.01016308       -3.44457145       -2.31703688
 C           -1.24795282       -3.38768571       -1.56004505
 C           -0.09522238       -2.47212135       -3.38750857
 C           -2.63885572       -1.42691041       -1.15959398
 C           -2.03419946       -2.28134304       -2.06874488
 C           -1.32311348       -1.70698560       -3.19659644
 C           -3.69267253        0.68517925       -0.72097979
 C           -3.38174186        2.09791300       -0.59421687
 C           -2.48207995        2.66204536       -1.48525436
 C           -2.90838706       -0.11520220       -1.54778092
 C           -0.72275366        2.41919237       -2.98833152
 C           -1.31443455       -0.32034403       -3.35904914
 C           -2.00075366        1.85938547       -2.59677916
 C           -2.15326691        0.47275049       -2.56794905
 C            1.53276718        1.55598103       -3.31578248
 C            2.06445875        0.31521421       -3.85233806
 C            0.94085910       -0.47766025       -4.32452823
 C            0.14103181        1.63058696       -3.72428030
 C           -0.27085117        0.27968922       -4.06614192
