   70
C70 / DATE: 7/ 1/2024 / Origin: Program Fullerene / C70 from database
 C            1.60026494        0.03748505        4.49153510
 C            0.77762056       -1.14670623        4.32316212
 C            1.35729782       -1.95227432        3.26304358
 C            2.63032697        0.00997164        3.46873069
 C            2.52526145       -1.24575862        2.76359772
 C            2.53178914        1.22771101        2.69482822
 C            0.76160954        1.19355876        4.23616949
 C            1.39477944        1.98085403        3.19558424
 C           -0.59899363       -0.71653623        4.18526911
 C           -0.59260026        0.72756185        4.00614308
 C           -1.44028447       -1.47744282        3.39261661
 C            0.50973762       -2.57397554        2.34305898
 C           -0.86975576       -2.52420994        2.55235091
 C            0.99505420       -2.84939031        1.06035880
 C            2.74812936       -1.26331479        1.39744136
 C            2.24465046       -2.34073666        0.69247892
 C            2.71495247        1.16371204        1.31628711
 C            2.99321190       -0.06924965        0.70475554
 C            2.20961955        2.20621119        0.54316247
 C            0.58494885        2.61748149        2.26506077
 C            1.15108113        2.97142509        1.04222940
 C           -1.30861451        1.29428768        2.95328019
 C           -0.80013211        2.43919141        2.34025827
 C           -2.44837066       -0.80332843        2.59889706
 C           -2.30055627        0.55109907        2.30308829
 C           -1.77300532       -2.71283923        1.42776732
 C           -2.83247538       -1.72353616        1.54690279
 C            0.11488883       -3.30238669        0.07229192
 C           -1.24620175       -3.00436753        0.17412490
 C            0.62876538       -3.75978620       -1.13667649
 C            2.71772936       -2.53284464       -0.59210529
 C            1.98859806       -3.40638847       -1.48721492
 C            3.17577084       -0.12328738       -0.68766260
 C            3.13413536       -1.35997936       -1.33764228
 C            2.52420795        2.24397023       -0.80810141
 C            2.97449184        1.02538111       -1.45262068
 C            1.66110337        2.95257343       -1.73791507
 C            0.42972211        3.80728123        0.19591529
 C            0.61441333        3.71586137       -1.24153300
 C           -1.61172504        3.12374659        1.44644725
 C           -0.98780833        3.97489672        0.44848268
 C           -2.94354567        1.08245893        1.17850572
 C           -2.69275653        2.39980163        0.80328148
 C           -3.40607655       -1.21373289        0.39643466
 C           -3.52516387        0.22669395        0.24325549
 C           -1.98756890       -2.69170461       -0.97280558
 C           -3.02070584       -1.76477867       -0.89031019
 C           -0.17256429       -3.61488907       -2.33315954
 C           -1.44285553       -2.92661900       -2.22871168
 C            1.96470373       -2.77698103       -2.79707400
 C            2.51454748       -1.44422576       -2.65162833
 C            0.63060808       -2.91820886       -3.32710004
 C            2.27948229        0.91501433       -2.72786121
 C            1.45028280        2.09421308       -2.89321221
 C            1.82509957       -0.33547324       -3.13907279
 C            0.18160566        1.95911873       -3.43246639
 C           -0.70228574        3.62785043       -1.85619092
 C           -1.69157052        3.78738758       -0.80829451
 C           -2.68093737        2.74372002       -0.61201088
 C           -0.93419484        2.69108767       -2.85418682
 C           -3.40782012        0.53535744       -1.17408688
 C           -3.08712169       -0.69813892       -1.87727558
 C           -2.81213924        1.73053784       -1.55889178
 C           -2.05855708        1.77176402       -2.73201973
 C           -1.44608065       -1.84504738       -3.20255618
 C           -0.09011778       -1.72244915       -3.71136172
 C            0.53017851       -0.47501672       -3.67124234
 C           -0.29438754        0.63948313       -3.80235852
 C           -2.17300531       -0.68620299       -2.92960763
 C           -1.69069140        0.53305770       -3.40184032
