   70
C70 / DATE: 7/ 1/2024 / Origin: Program Fullerene / C70 from database
 C            1.64952249       -0.02095355        4.45711881
 C            0.82887207       -1.20908368        4.30166422
 C            1.39596884       -2.01006559        3.23055103
 C            2.67469754       -0.05641210        3.43100335
 C            2.60425697       -1.34265177        2.77621757
 C            2.53501902        1.12355767        2.60523622
 C            0.80733387        1.13068405        4.19538355
 C            1.36531112        1.85142607        3.06569721
 C           -0.55137202       -0.78416294        4.19303943
 C           -0.56544772        0.66928153        4.09818905
 C           -1.39821727       -1.51108757        3.37102783
 C            0.55050856       -2.58264660        2.27553603
 C           -0.83474936       -2.47754206        2.43468887
 C            1.07318688       -2.88530880        1.01067090
 C            2.89554867       -1.40949974        1.42502322
 C            2.38424032       -2.48757261        0.72707694
 C            2.72956096        0.99467979        1.23634634
 C            3.15242936       -0.23361294        0.71172809
 C            2.10625602        1.90816347        0.39442991
 C            0.48471139        2.36433712        2.11986504
 C            0.90726076        2.50397840        0.79490892
 C           -1.39638366        1.27432769        3.15920267
 C           -0.88046846        2.32642307        2.39247660
 C           -2.47593115       -0.81816991        2.68879459
 C           -2.51446512        0.57221930        2.69767066
 C           -1.68968833       -2.50019370        1.25871597
 C           -2.73579977       -1.51328828        1.43923091
 C            0.19193735       -3.15108530       -0.04550709
 C           -1.10265697       -2.64893152        0.01464483
 C            0.70011552       -3.51147358       -1.28654529
 C            2.92115682       -2.73575749       -0.52397489
 C            2.13525452       -3.49392002       -1.47038717
 C            3.40561677       -0.33740371       -0.66298121
 C            3.50940679       -1.61068055       -1.23105742
 C            2.47152625        1.92312630       -0.94002790
 C            3.15670734        0.76365289       -1.48822378
 C            1.52928482        2.40383493       -1.93101386
 C            0.01972730        3.02292821       -0.15760951
 C            0.29748009        2.90299295       -1.52364247
 C           -1.73281016        3.03908590        1.56393551
 C           -1.24717066        3.43911578        0.25327016
 C           -3.37411084        1.19468191        1.80022219
 C           -3.08957972        2.55937563        1.40724978
 C           -3.18041633       -0.77498518        0.34851078
 C           -3.76544219        0.46574251        0.60217245
 C           -1.62845847       -1.97165039       -1.08888719
 C           -2.67999335       -1.05935646       -0.92675412
 C            0.09389471       -2.92853304       -2.47091203
 C           -0.94806586       -2.02235670       -2.30874567
 C            2.42039211       -2.98316146       -2.79814915
 C            3.23282463       -1.78896631       -2.64604136
 C            1.15977515       -2.58268285       -3.39356927
 C            2.67376585        0.56953652       -2.85107155
 C            1.56880048        1.48770591       -3.05852781
 C            2.58129691       -0.71419088       -3.36560722
 C            1.27967914       -1.19649451       -3.80705970
 C           -1.01605765       -0.92656500       -3.16553669
 C            0.36688497        1.01294651       -3.57306105
 C            0.16987397       -0.36903587       -3.65915662
 C           -0.75100636        2.86796801       -2.44314535
 C           -0.74300386        1.84424743       -3.47840965
 C           -2.36569123        3.37148765       -0.67325071
 C           -3.46581426        2.71610072        0.01448502
 C           -3.93673465        1.42863866       -0.47182695
 C           -2.12247631        3.04380186       -1.99798597
 C           -3.05731917       -0.26189454       -2.00784174
 C           -2.16970578       -0.15856351       -3.15466989
 C           -2.05965137        1.24138444       -3.50614130
 C           -3.62935876        1.05359165       -1.77040815
 C           -2.92203952        1.99891617       -2.61825494
