   70
C70 / DATE: 7/ 1/2024 / Origin: Program Fullerene / C70 from database
 C            1.09817737       -0.03827951        4.59445526
 C            2.36924647       -0.38736204        4.01840755
 C            2.25031682       -1.74026437        3.48639790
 C            0.26223042       -1.22552606        4.51592072
 C            0.84285708       -2.06607894        3.49028361
 C           -1.09211839       -0.76526796        4.33453697
 C            0.34337673        1.03527235        3.98352376
 C           -1.03672941        0.68549888        4.21619140
 C            0.71664050        1.51617657        2.72128259
 C            2.87534759        0.42472468        2.93513975
 C            2.02301698        1.30741701        2.25828043
 C            2.95843583       -1.74972707        2.22352452
 C            3.67363495       -0.49045650        2.15281397
 C            2.31056024       -2.19448535        1.07468116
 C            0.18464294       -2.20890119        2.26828690
 C            0.92718527       -2.44243241        1.10440465
 C           -1.83743956       -1.24220673        3.18703353
 C           -1.18873385       -1.94260399        2.17164147
 C           -1.99990476        1.05901526        3.21496948
 C           -2.70013035       -0.14747192        2.80895830
 C           -0.26657874        2.01038653        1.84759889
 C           -1.62383920        1.94131531        2.21450981
 C            0.08891543        2.39582624        0.54357252
 C            2.37736462        1.69291019        0.96155810
 C            1.41007220        2.22684427        0.09468341
 C            4.08839244       -0.06210477        0.91123371
 C            3.58910490        1.21710017        0.44774022
 C            2.93716052       -1.94819185       -0.14864903
 C            3.92851502       -0.96834734       -0.21114251
 C            2.33389906       -2.38697825       -1.32163889
 C            0.25571290       -2.75075271       -0.07924436
 C            0.98639486       -2.91449708       -1.25407341
 C           -1.80542857       -1.99167622        0.92060360
 C           -1.12790638       -2.58268751       -0.14928665
 C           -3.25640942       -0.15722282        1.53861103
 C           -2.96480128       -1.22956403        0.69492549
 C           -2.59427460        2.17088218        1.25362493
 C           -3.51347984        1.08279402        0.96051700
 C           -0.88592726        2.91840969       -0.31871871
 C           -2.22917162        2.78248843        0.00240361
 C           -0.55927439        3.21986061       -1.63314623
 C            1.73622823        2.47003108       -1.25261341
 C            0.74102696        2.85632592       -2.13603606
 C            3.82077033        1.23253172       -0.97833269
 C            4.04010470       -0.14484241       -1.39957006
 C            2.80207834        1.79018465       -1.82475253
 C            2.42896324       -1.58411820       -2.53681628
 C            3.16660096       -0.41433550       -2.52639509
 C            2.51167575        0.83152088       -2.87789383
 C            0.35810171       -2.64378573       -2.53555248
 C            1.12063354       -1.58011543       -3.16219093
 C           -1.77482588       -2.75856025       -1.37014983
 C           -1.02041578       -2.59327588       -2.59903966
 C           -3.58783475       -1.26732474       -0.54896344
 C           -3.06611929       -2.13825876       -1.57951866
 C           -3.87035670        1.16138546       -0.44533226
 C           -3.16718390        2.30476962       -1.00519097
 C           -3.97631702       -0.01453160       -1.17816074
 C           -1.52078599        2.93048355       -2.68749454
 C           -2.77354087        2.28855336       -2.33534587
 C            0.54074628        2.04000311       -3.32463401
 C            1.22280708        0.83133282       -3.40768803
 C            0.49139676       -0.36915813       -3.46137779
 C           -0.85684028        2.09542184       -3.67490291
 C           -1.64147473       -1.50515665       -3.33112899
 C           -2.99430833       -1.37535931       -2.81749160
 C           -3.52435890       -0.04810432       -2.56083716
 C           -2.86379202        1.05094760       -3.09826316
 C           -0.90530248       -0.35337093       -3.61199588
 C           -1.58673045        0.85297043       -3.76874759
