   70
C70 / DATE: 7/ 1/2024 / Origin: Program Fullerene / C70 from database
 C            1.18979035       -0.10918262        4.31714798
 C            2.45643987       -0.54043432        3.77641203
 C            2.40845726       -1.98542084        3.61598565
 C            0.34253865       -1.28253851        4.47249931
 C            1.06835343       -2.43035539        3.96648210
 C           -0.95768201       -0.96326716        3.91007342
 C            0.42970305        0.88655292        3.58783270
 C           -0.95165518        0.45326310        3.57254075
 C            0.94829780        1.46750343        2.43478009
 C            2.90011902        0.02827371        2.52004179
 C            2.19352992        1.07420538        1.92522943
 C            2.95104482       -2.30637305        2.30372913
 C            3.34241466       -1.05955938        1.67189514
 C            2.34587933       -3.29057028        1.53782708
 C            0.41286021       -3.33123052        3.13760975
 C            1.13853767       -3.93271398        2.03092440
 C           -1.58735893       -1.86141828        3.04898978
 C           -0.94004435       -3.04314086        2.67649741
 C           -2.60766623       -1.37911047        2.23346047
 C           -1.77779687        0.89889972        2.54736461
 C           -2.79386524        0.05814597        2.12176396
 C            0.06758537        2.14348180        1.59608785
 C           -1.30464092        1.86699285        1.65996492
 C            0.58010226        2.83165075        0.50167577
 C            2.49355670        1.37884856        0.59460259
 C            1.80285241        2.42156552       -0.03121958
 C            3.20366692       -0.89315983        0.30040129
 C            3.15038935        0.41122642       -0.17968191
 C            2.18304687       -3.07887950        0.10959740
 C            2.64750162       -1.90958388       -0.48715571
 C            0.21976358       -4.07420603        0.91383370
 C           -1.05160950       -3.51020336        1.30052737
 C            0.86443473       -3.54924125       -0.26607337
 C           -2.76429457       -1.93264658        0.89771816
 C           -1.75898175       -2.73599374        0.38835101
 C           -3.42640439        0.31461259        0.84403776
 C           -3.34954740       -0.90928373        0.06129403
 C           -2.14564836        2.33429975        0.64547483
 C           -3.19231538        1.51698921        0.18951464
 C           -0.27780347        3.64099323       -0.23883846
 C           -1.70703612        3.41188358       -0.12475075
 C            0.02163666        3.93653578       -1.63151757
 C            2.15716772        2.79598781       -1.32492714
 C            1.16368642        3.39377943       -2.19600602
 C            3.24636242        0.58016215       -1.55203570
 C            2.91593587        1.86363441       -2.12992287
 C            2.13014119       -1.56809430       -1.74159473
 C            2.66870430       -0.45497875       -2.38385249
 C            0.13296849       -2.76889365       -1.15010429
 C           -1.19320530       -2.41196212       -0.85471472
 C            0.84478376       -2.01321799       -2.07577685
 C           -2.98064044       -0.81478869       -1.27542341
 C           -1.87719272       -1.55145027       -1.72993866
 C           -3.55841343        1.55256174       -1.15279926
 C           -3.36418736        0.34872193       -1.94316102
 C           -2.30118204        3.67080024       -1.42354551
 C           -1.22047805        3.84957049       -2.37720842
 C           -3.21182848        2.69247465       -1.97116404
 C           -2.72032239        0.73620553       -3.18467681
 C           -1.34802783        2.81924232       -3.39426346
 C           -2.64167725        2.18643881       -3.21070666
 C            1.02659229        2.51781732       -3.35155855
 C            2.16798433        1.62146006       -3.35325955
 C            1.94370195        0.19305108       -3.46348092
 C           -0.23586380        2.03680061       -3.69697876
 C            0.14128149       -1.42649123       -3.11771714
 C           -1.28733145       -1.23184165       -2.95489901
 C           -1.64231764       -0.00069504       -3.63991232
 C            0.68197614       -0.26549807       -3.80261106
 C           -0.40677003        0.68179245       -4.00069160
