   70
C70 / DATE: 7/ 1/2024 / Origin: Program Fullerene / C70 from database
 C            1.67999031       -0.02790609        4.50628759
 C            0.85644516       -1.21916449        4.42532167
 C            1.34059087       -2.03910541        3.32434773
 C            2.66455216       -0.10441956        3.44644302
 C            2.49338733       -1.36995988        2.75400798
 C            2.57568116        1.11351726        2.65940736
 C            0.82758445        1.11372005        4.22717451
 C            1.39744169        1.83655360        3.10211496
 C           -0.52963215       -0.79348678        4.40310357
 C           -0.53707432        0.63313220        4.11153311
 C           -1.43564226       -1.60561505        3.74394193
 C            0.40399516       -2.63091470        2.47901160
 C           -0.91748476       -2.68898059        2.92392707
 C            0.68640895       -2.75488234        1.10732923
 C            2.65306480       -1.36901015        1.37865382
 C            1.88528128       -2.22972967        0.59439202
 C            2.81002116        1.01399665        1.29424168
 C            3.18330393       -0.22729406        0.78803166
 C            2.19387686        1.92169998        0.43159893
 C            0.53613154        2.34569328        2.13696782
 C            1.02412023        2.57264175        0.84787247
 C           -1.31369426        1.11626533        3.06077964
 C           -0.83895267        2.20215551        2.32325155
 C           -2.49378834       -0.98461811        2.97079235
 C           -2.32966599        0.32087810        2.52114068
 C           -1.96829838       -3.04731405        1.99940469
 C           -2.96468824       -1.98596324        2.03579464
 C           -0.28310677       -3.28053745        0.23740997
 C           -1.62017524       -3.27151725        0.61767136
 C           -0.03556005       -3.30860763       -1.12816518
 C            2.16268284       -2.29355825       -0.77541732
 C            1.25482256       -2.89887273       -1.63613894
 C            3.56954434       -0.30302355       -0.53642258
 C            3.15245453       -1.46257191       -1.30142982
 C            2.53565721        1.88290544       -0.92307223
 C            3.37002985        0.86236558       -1.37678581
 C            1.80582068        2.62881332       -1.84385187
 C            0.20136476        3.21337240       -0.08165184
 C            0.60049787        3.30841309       -1.41191359
 C           -1.69655066        2.80656322        1.41619727
 C           -1.13027757        3.45517534        0.24784571
 C           -2.93690896        0.71429703        1.32676782
 C           -2.85814388        2.05699799        0.97537112
 C           -3.23276837       -1.58539778        0.66721195
 C           -2.56653751       -2.53379076       -0.20294653
 C           -3.18874651       -0.24022390        0.33115060
 C           -1.05286140       -2.77282887       -2.02041470
 C           -2.15186287       -2.11973527       -1.46462207
 C            1.04828214       -2.36536034       -2.97800333
 C           -0.38394378       -2.21842339       -3.18395794
 C            3.08996580       -1.05730213       -2.69583335
 C            3.24706246        0.38823476       -2.74371064
 C            1.92143105       -1.40829199       -3.47771627
 C            1.56696340        2.10375885       -3.18320500
 C            2.19437457        0.92986977       -3.58005112
 C            1.39620208       -0.18552818       -4.06838178
 C           -0.38757454        3.18716061       -2.47731562
 C            0.16431720        2.31338497       -3.49858253
 C           -2.14004978        3.41687383       -0.79480394
 C           -3.14865920        2.45162761       -0.38979946
 C           -1.73344841        3.09314745       -2.14921029
 C           -3.02755493        0.09759485       -1.01287513
 C           -2.47719061       -0.83154179       -1.90513521
 C           -3.20055582        1.42125054       -1.40437200
 C           -2.49355724        1.92375179       -2.56806667
 C           -0.88715434       -1.06437495       -3.76795802
 C            0.02389945       -0.03206212       -4.23987837
 C           -0.59896228        1.25936710       -3.99014943
 C           -2.02902580       -0.40674920       -3.15630265
 C           -1.92715194        1.01348434       -3.44835787
