   70
C70 / DATE: 7/ 1/2024 / Origin: Program Fullerene / C70 from database
 C            1.19590170        0.05139374        4.33927028
 C            2.48339922       -0.22361672        3.74740920
 C            2.53743608       -1.65024360        3.49432184
 C            0.39403017       -1.16413113        4.24417163
 C            1.17320268       -2.14307275        3.52587254
 C           -0.89702504       -0.78324019        3.71806490
 C            0.39431771        1.12242606        3.78568029
 C           -0.97504919        0.65757082        3.84854549
 C            0.81418392        1.79508418        2.63505702
 C            2.83135029        0.44387275        2.50991270
 C            1.95049109        1.36023883        1.94201358
 C            3.29624354       -1.85031248        2.27785982
 C            3.46119093       -0.54189542        1.64844249
 C            2.93827085       -2.92131264        1.47610493
 C            0.65749778       -2.72982615        2.37228312
 C            1.55830589       -3.39377326        1.54242699
 C           -1.36698284       -1.36827618        2.54536017
 C           -0.56641803       -2.28790148        1.84111857
 C           -2.45516574       -0.76348933        1.91021664
 C           -1.91316399        1.32929872        3.09059116
 C           -2.77605904        0.56086234        2.20830223
 C           -0.12630125        2.57790286        1.95901230
 C           -1.47172953        2.47738647        2.32380959
 C            0.19891307        3.14841596        0.72462399
 C            2.05553172        1.62641834        0.58214499
 C            1.32570773        2.67889770        0.03686602
 C            3.31610440       -0.42199331        0.26437936
 C            2.67949142        0.70326321       -0.26655714
 C            3.30766873       -2.86507657        0.07939619
 C            3.45151897       -1.55944750       -0.53419225
 C            1.15501874       -3.77912813        0.20541309
 C            2.30075841       -3.59091561       -0.66782710
 C           -0.99566944       -2.76785809        0.59423125
 C           -0.10035705       -3.41490791       -0.26310282
 C           -2.97049491       -1.32364905        0.75152480
 C           -2.25412139       -2.41033388        0.11716293
 C           -3.47632413       -0.44627358       -0.29516098
 C           -3.19022624        1.45122706        1.13178428
 C           -2.49968347        2.71610287        1.32921041
 C           -3.34021285        0.93398314       -0.15337759
 C           -0.79122555        3.87252803        0.05435997
 C           -2.17648793        3.48116391        0.22643843
 C           -0.63039559        4.22323165       -1.34264532
 C            1.52205122        2.98095956       -1.30925317
 C            0.56041401        3.78867062       -2.03115850
 C            2.40208408        0.73633262       -1.63265176
 C            1.94357050        1.91625492       -2.19652917
 C            2.77906375       -1.61063242       -1.82460115
 C            2.09962543       -2.89416397       -1.92398365
 C            2.15199534       -0.46086306       -2.29434238
 C           -0.28324553       -3.33181486       -1.64430573
 C            0.83469595       -2.92868095       -2.48405252
 C           -2.48169791       -2.31145356       -1.31580583
 C           -3.21367513       -1.08082224       -1.57301649
 C           -1.47995084       -2.71294833       -2.18607304
 C           -2.88469705       -0.29329939       -2.66625102
 C           -3.04288933        1.73321705       -1.26500769
 C           -2.64959028        3.05791744       -1.07685704
 C           -1.78315337        3.69281801       -2.05774824
 C           -2.87753599        1.15275175       -2.52308443
 C            0.15101070        3.03582312       -3.20688172
 C            0.96386502        1.83130970       -3.26304725
 C           -1.29473239        2.91149286       -3.17946501
 C           -1.86335462        1.67104939       -3.42983029
 C            1.02678853       -0.56285427       -3.12073494
 C            0.38494021       -1.79166983       -3.26178085
 C           -1.06480869       -1.83493557       -3.27142910
 C           -1.75881517       -0.65979336       -3.51419566
 C            0.36174925        0.60156386       -3.51520953
 C           -1.00714954        0.55317722       -3.79322382
