   70
C70 / DATE: 7/ 1/2024 / Origin: Program Fullerene / C70 from database
 C            1.23578991       -0.08557373        4.46191940
 C            2.56687910       -0.29408016        3.92569042
 C            2.60026690       -1.62831780        3.35717984
 C            0.41720031       -1.22943655        4.08217632
 C            1.23201605       -2.11373831        3.28430948
 C           -0.80936982       -0.72546143        3.51182939
 C            0.50985575        1.11508317        4.09218125
 C           -0.83155993        0.71103683        3.71356076
 C            1.14475644        2.10068590        3.34902309
 C            3.07684810        0.62413757        2.92174456
 C            2.41048635        1.81786482        2.68218360
 C            3.36958647       -1.56924385        2.12824460
 C            3.54669373       -0.16469909        1.79334413
 C            3.01741743       -2.44015403        1.11082918
 C            0.75895050       -2.56878678        2.05612662
 C            1.70160804       -3.06024828        1.16255790
 C           -1.26587576       -1.22641860        2.29576747
 C           -0.48870039       -2.14081047        1.56765023
 C           -2.26165891       -0.50690474        1.63901106
 C           -1.54660158        1.47540584        2.80109873
 C           -2.49920106        0.82039245        2.02381782
 C            0.34827864        2.91205639        2.44753095
 C           -1.01972524        2.69148505        2.34448054
 C            2.30953299        2.30764930        1.31962462
 C            1.10394339        3.10759494        1.22053070
 C            3.28939222        0.25713165        0.48664701
 C            2.64800782        1.48150223        0.25881302
 C            3.22718946       -2.02553096       -0.26396915
 C            3.38380864       -0.67414993       -0.55304500
 C            1.30757589       -3.35246508       -0.19377138
 C            2.32939301       -2.82002458       -1.08303922
 C           -0.89429899       -2.50373104        0.27117472
 C           -0.01865630       -3.22034739       -0.56382752
 C           -2.79404164       -1.01015652        0.45266336
 C           -2.11611092       -2.02294101       -0.22924879
 C           -3.81369699       -0.31816872       -0.20113570
 C           -3.42504113        1.59555149        1.34145282
 C           -4.14822418        1.02447257        0.22795545
 C           -1.67160235        3.34215940        1.30172794
 C           -3.01851419        2.92856472        0.95648755
 C            0.40721644        3.15953429        0.01241228
 C           -0.93634166        3.53876854        0.05841551
 C            2.10819353        1.75478991       -0.99288064
 C            0.87848356        2.42328741       -1.08573697
 C            3.17057680       -0.25457023       -1.86187076
 C            2.61241814        1.06468494       -2.08512000
 C            1.94399497       -2.33989774       -2.33281763
 C            2.53052782       -1.16382325       -2.80391366
 C           -0.27340592       -3.30396487       -1.92476585
 C            0.71311788       -2.76013733       -2.84540468
 C           -2.51348206       -2.32745776       -1.53284295
 C           -1.58475719       -2.98221471       -2.42486815
 C           -3.81645750       -0.28433002       -1.65018387
 C           -3.17613882       -1.30561313       -2.32134721
 C           -3.95515474        1.90354774       -0.91891772
 C           -3.15210500        3.02305395       -0.48573927
 C           -1.81956215        3.17092322       -1.03325611
 C           -3.46489160        1.07506749       -2.00155482
 C            0.01909415        2.16674699       -2.16404883
 C           -1.35412747        2.27354596       -1.98548778
 C           -2.20393189        1.30953782       -2.55300307
 C            1.84780304        1.02352235       -3.31262456
 C            1.83566732       -0.35017969       -3.78637429
 C            0.48270443        1.49953274       -3.28711414
 C            0.00026424       -1.95169484       -3.82584833
 C           -1.41938253       -2.12620197       -3.59167472
 C           -2.24541527       -0.95244582       -3.37933719
 C           -1.65655547        0.31497388       -3.37244276
 C            0.47234166       -0.68788146       -4.14051780
 C           -0.36329244        0.47751036       -3.87243180
