   70
C70 / DATE: 7/ 1/2024 / Origin: Program Fullerene / C70 from database
 C            1.29016763        0.00736007        4.18052147
 C            2.62284712       -0.29513366        3.71366710
 C            2.64844788       -1.69548408        3.32445634
 C            0.47106697       -1.18322270        4.00907665
 C            1.28025621       -2.18711626        3.35004526
 C           -0.77318808       -0.77723845        3.38326629
 C            0.57860433        1.11094728        3.57199333
 C           -0.77594078        0.66984943        3.31280376
 C            1.19684036        1.91035033        2.61448144
 C            3.16446137        0.47533805        2.61177622
 C            2.44338789        1.54281303        2.07374545
 C            3.40707142       -1.80123733        2.08884591
 C            3.81917704       -0.45737410        1.71039022
 C            2.96351314       -2.68506011        1.11230089
 C            0.77421680       -2.82459264        2.22197134
 C            1.67162354       -3.32951087        1.28245098
 C           -1.24595269       -1.48913770        2.28945601
 C           -0.56189056       -2.62927337        1.85676021
 C           -2.16580004       -0.87396723        1.43875423
 C           -1.46402426        1.28327585        2.27580764
 C           -2.31539985        0.52140565        1.46993849
 C            0.38430384        2.78887105        1.90037152
 C           -0.98505953        2.49718231        1.79112110
 C            0.99903206        3.63275455        0.98394154
 C            2.83290961        2.04044203        0.82441903
 C            2.16947684        3.14083265        0.29515118
 C            3.92868192       -0.12068108        0.36724213
 C            3.48216463        1.19124558       -0.06975844
 C            3.09013131       -2.33724808       -0.29543495
 C            3.54465573       -1.07925698       -0.65862217
 C            1.19645526       -3.69599341       -0.03889373
 C            1.95227808       -2.90958498       -0.99698243
 C           -1.07544137       -3.35247401        0.78516553
 C           -0.16494632       -3.84177717       -0.23916887
 C           -2.80449593       -1.63636993        0.46120402
 C           -2.27152248       -2.87384183        0.11100397
 C           -3.70649425       -1.02914750       -0.40172686
 C           -3.11039080        1.17155328        0.51635472
 C           -3.78503852        0.41671021       -0.44025486
 C           -1.80243400        3.21761554        0.92905125
 C           -2.83457081        2.50460473        0.19794282
 C            0.20760317        4.36007463        0.01192464
 C           -1.22696542        4.19503240        0.02666120
 C            1.83783453        3.12488387       -1.12103056
 C            0.68208340        3.97061359       -1.30852108
 C            2.95046275        1.05992961       -1.41757259
 C            2.85544326       -0.35568561       -1.71394741
 C            1.92606881        1.91839460       -1.80596255
 C            1.26067711       -2.15751518       -1.94653293
 C            1.66864372       -0.85024071       -2.23621172
 C           -0.72285950       -3.45436803       -1.52265202
 C           -2.13743090       -3.22124583       -1.29588929
 C           -0.00614673       -2.58577775       -2.34781978
 C           -3.81007215       -1.51204479       -1.77126016
 C           -2.85833180       -2.50379382       -2.23836910
 C           -3.66777592        0.82058744       -1.83128994
 C           -3.73111718       -0.36345079       -2.65809685
 C           -2.69716055        2.85976312       -1.20786455
 C           -1.63449552        3.83465667       -1.32012041
 C           -0.44589583        3.44236155       -2.04101038
 C           -2.75918552        1.82650220       -2.13258796
 C            0.78673628        1.38931995       -2.43593946
 C            0.77526163        0.04303977       -2.82331151
 C           -0.39259605        2.14637615       -2.54236144
 C           -1.59455131        1.50410684       -2.85289256
 C           -0.69150107       -1.84889358       -3.30843626
 C           -2.14228324       -1.93142379       -3.36602415
 C           -2.65636491       -0.59199745       -3.59556806
 C           -0.31462802       -0.46281688       -3.52171028
 C           -1.53063375        0.32518367       -3.59023857
