   70
C70 / DATE: 7/ 1/2024 / Origin: Program Fullerene / C70 from database
 C            1.50645354       -0.02016404        4.59807229
 C            0.68493647       -1.19411250        4.35995709
 C            1.31985109       -1.98261182        3.33478341
 C            2.59568758       -0.04129304        3.63738989
 C            2.52765689       -1.28446230        2.91532033
 C            2.53568149        1.17552205        2.87152423
 C            0.69263345        1.15102218        4.31912348
 C            1.33874714        1.90193199        3.27531420
 C           -0.66249550       -0.74728988        4.12125929
 C           -0.65643647        0.70772100        4.08369526
 C           -1.44001008       -1.40458199        3.17679900
 C            0.53754730       -2.58474274        2.35170043
 C           -0.80937566       -2.19665925        2.19208911
 C            1.23115206       -3.09988064        1.26155169
 C            2.84621221       -1.30273949        1.56258336
 C            2.48085832       -2.45474908        0.88690175
 C            2.84604111        1.14191245        1.51626450
 C            2.93982667       -0.09354495        0.84349822
 C            2.48619132        2.27036934        0.79828561
 C            0.56631969        2.49065296        2.27827275
 C            1.27306629        2.97124412        1.18771821
 C           -1.41843748        1.32878008        3.09776123
 C           -0.77960074        2.10513823        2.10972566
 C           -2.63109127       -0.76543969        2.86551275
 C           -2.60722101        0.68732999        2.78351166
 C           -3.43736135       -1.26274803        1.78163608
 C           -1.47231444       -2.47529032        0.97715080
 C           -2.79379800       -2.08168158        0.78446928
 C            0.52457198       -3.40383571        0.03806960
 C           -0.74179827       -2.87398053       -0.14246978
 C            2.59247779       -2.50455028       -0.54787578
 C            1.49396545       -3.32272529       -1.03712821
 C            2.95655242       -0.12128189       -0.56941002
 C            2.94200570       -1.35657444       -1.24454760
 C            2.54908789        2.25270473       -0.63992132
 C            2.88789631        1.08240335       -1.29520292
 C            0.57305883        3.34855352       -0.01368942
 C            1.43821185        3.04555485       -1.14484140
 C           -1.44442656        2.38461111        0.89323435
 C           -0.78447404        3.10463133       -0.12032305
 C           -3.34319998        1.07487851        1.60698384
 C           -4.01631573       -0.11421103        1.10969048
 C           -2.76366441        1.93868731        0.68965077
 C           -3.18103914       -1.57172012       -0.52003025
 C           -3.98440432       -0.37496044       -0.31616799
 C           -1.16169220       -2.48359169       -1.42036092
 C           -2.24106805       -1.61185829       -1.54626625
 C            1.04252078       -3.11296585       -2.32840615
 C           -0.33082578       -2.67285287       -2.52187952
 C            2.83482667       -1.40600222       -2.63280995
 C            1.88160159       -2.33369220       -3.22014548
 C            2.67168759        1.06474375       -2.66611942
 C            2.75909748       -0.18048221       -3.38942027
 C            0.86978184        2.71334443       -2.37463851
 C            1.54825015        1.81745919       -3.20428090
 C           -1.33515055        3.20073099       -1.39304442
 C           -0.50724529        2.87601582       -2.54540730
 C           -3.31568598        1.95283478       -0.58925349
 C           -3.79360312        0.70333990       -1.16246740
 C           -2.65720049        2.68251573       -1.64407075
 C           -2.18146479       -0.57951152       -2.49077210
 C           -1.24045466        1.90249141       -3.34183367
 C           -3.05068207        0.50145934       -2.38949179
 C           -2.57882132        1.80343939       -2.80187358
 C           -0.33559907       -1.66233974       -3.56468821
 C            1.01038894       -1.57443600       -4.09841072
 C            1.60093044       -0.26802189       -4.26831542
 C            0.77699433        0.89461709       -4.01805125
 C           -1.08748987       -0.50501003       -3.36117456
 C           -0.57832299        0.74995467       -3.74471083
