   70
C70 / DATE: 7/ 1/2024 / Origin: Program Fullerene / C70 from database
 C            1.33058169        0.06580537        4.35946634
 C            2.57593224       -0.29582578        3.72738553
 C            2.44916107       -1.66511785        3.24189130
 C            0.48329810       -1.11314211        4.36154050
 C            1.08709571       -2.08553347        3.46752233
 C           -0.87739831       -0.68466447        4.08988303
 C            0.55905501        1.15139767        3.79435779
 C           -0.83036185        0.72394631        3.72755670
 C            1.07233285        1.91736154        2.74836559
 C            3.04800798        0.50330237        2.61475653
 C            2.25112494        1.52718738        2.09094096
 C            2.96682315       -1.68988199        1.89332392
 C            3.66602677       -0.43463245        1.69945668
 C            2.17451722       -2.17456427        0.85645799
 C            0.32611002       -2.56976309        2.40709513
 C            0.85141570       -2.58581882        1.10465921
 C           -1.68412591       -1.52852317        3.34934258
 C           -1.05308814       -2.59192879        2.57942212
 C           -2.68969658       -0.94297573        2.48983755
 C           -1.62788811        1.21365065        2.69016846
 C           -2.51047908        0.35680281        2.01872911
 C            0.17922743        2.75945182        2.10050934
 C           -1.23140881        2.39957923        2.08415488
 C            0.51479796        3.31123224        0.80573324
 C            2.51757900        1.97549577        0.78809382
 C            1.67564128        2.90397228        0.16521208
 C            3.90168712       -0.01541227        0.40510699
 C            3.50294725        1.32933956        0.03982901
 C            2.58604319       -1.91012139       -0.45150815
 C            3.48890840       -0.87635877       -0.69092698
 C            1.85017967       -2.40763935       -1.51452170
 C            0.03437017       -2.97597504        0.03180492
 C            0.57289887       -3.03787906       -1.25089715
 C           -1.91330091       -2.87057229        1.44938132
 C           -3.06638286       -1.98675470        1.56031441
 C           -1.35023630       -3.09916415        0.19968067
 C           -3.74249103       -1.62973495        0.40808869
 C           -3.01958268        0.70233590        0.75701474
 C           -3.79374747       -0.22192555        0.04817470
 C           -1.76983417        2.76240934        0.79060987
 C           -0.71569676        3.42657750        0.03841630
 C           -2.62683760        1.89193497        0.13464772
 C           -0.66695785        3.28973468       -1.34640203
 C            1.78291794        3.14017343       -1.20607419
 C            0.57144130        3.36938670       -1.98108795
 C            3.43717866        1.35609232       -1.40702959
 C            3.30315711       -0.02551020       -1.85686938
 C            2.68929838        2.34442985       -2.01860964
 C            1.71580209       -1.60853541       -2.72550487
 C            2.33660047       -0.36425898       -2.80500656
 C           -0.27873985       -2.79251833       -2.40196092
 C            0.34896722       -1.75263194       -3.19746096
 C           -2.19124774       -3.06734725       -0.91280166
 C           -3.46582348       -2.37937969       -0.80279307
 C           -1.64883645       -2.76586466       -2.22501542
 C           -3.86070901       -0.14484312       -1.40226198
 C           -3.57822600       -1.46822452       -1.92754248
 C           -2.40684720       -1.65158421       -2.76902353
 C           -2.79306021        2.04786676       -1.23854336
 C           -1.75104966        2.71083078       -2.01037078
 C           -3.29769885        0.94751945       -2.03915990
 C           -0.37188747       -0.61523011       -3.55534185
 C           -1.73379074       -0.52749145       -3.24463825
 C           -1.53980733        1.92835508       -3.22360944
 C           -2.33807256        0.72326303       -3.10901558
 C            0.75152246        2.74537661       -3.27946448
 C            2.01375546        2.02848153       -3.26091384
 C            1.74369681        0.63657032       -3.57333931
 C           -0.26982761        1.84013917       -3.76500598
 C            0.33503791        0.52732694       -3.92623104
