   70
C70 / DATE: 7/ 1/2024 / Origin: Program Fullerene / C70 from database
 C            1.30386904       -0.00199036        4.37345757
 C            2.53908798       -0.30131734        3.69432730
 C            2.53125859       -1.72217497        3.39871421
 C            0.46165749       -1.19281945        4.31471524
 C            1.15900393       -2.17707249        3.52762008
 C           -0.84679455       -0.75899775        3.88077505
 C            0.49382454        1.09409001        3.88784357
 C           -0.86868885        0.66914701        4.12218946
 C            0.79286728        1.70948883        2.66671975
 C            2.83242057        0.39046476        2.45797899
 C            1.94224764        1.34130872        1.94671373
 C            3.19018168       -1.90937600        2.11879308
 C            3.40262751       -0.58779208        1.54815320
 C            2.71429876       -2.91345484        1.29187603
 C            0.54604966       -2.72594409        2.40737326
 C            1.37729266       -3.43281547        1.54476303
 C           -1.37413999       -1.23653273        2.67793635
 C           -0.64220427       -2.15480516        1.90771189
 C           -2.41295004       -0.50263094        2.08705169
 C           -1.86998817        1.39419181        3.52101504
 C           -2.83939361        0.65861720        2.74211334
 C           -0.23246645        2.41890951        2.02674866
 C           -1.47519857        2.48977361        2.65902965
 C           -0.12137625        2.72050918        0.66352897
 C            2.04372572        1.67247721        0.59364142
 C            1.10629112        2.54121545        0.02966855
 C            3.21752841       -0.38303430        0.18723935
 C            2.86841309        0.89343668       -0.22954105
 C            2.82743127       -2.74288142       -0.14246248
 C            2.97109480       -1.46238907       -0.67036305
 C            0.85243077       -3.91218956        0.28913005
 C            1.84695352       -3.62307502       -0.73288638
 C           -1.03445368       -2.39369673        0.58385303
 C           -0.40892326       -3.37677203       -0.16824058
 C           -2.70900341       -0.68546744        0.72764846
 C           -1.89269058       -1.50160971       -0.05184522
 C           -3.66538371        0.10707340        0.10020625
 C           -3.56641576        1.67796804        2.01748756
 C           -2.65652209        2.81185686        1.88700510
 C           -4.06388791        1.36285448        0.70230258
 C           -1.25795956        3.00095563       -0.11321511
 C           -2.51253318        3.08469771        0.47730408
 C           -3.61001234        2.41899798       -0.18480939
 C           -1.18799368        2.87087977       -1.50322659
 C            1.24168042        2.93612035       -1.29838059
 C            0.04762399        3.04684294       -2.11646252
 C            2.96418547        1.17165327       -1.58166696
 C            2.27899754        2.33050899       -2.10739083
 C            2.55428745       -1.20581982       -1.98593751
 C            2.78362432        0.06954268       -2.50917195
 C            1.13880475       -3.15625588       -1.90070030
 C           -0.28465436       -3.18220866       -1.59573848
 C            1.63309685       -2.06576047       -2.60982383
 C           -1.96424812       -1.45711375       -1.45894718
 C           -1.09527400       -2.24906209       -2.22940372
 C           -3.52802534        0.36978590       -1.31541434
 C           -3.33854824        1.80680750       -1.46540627
 C           -2.23205234        2.23332051       -2.19225286
 C           -2.73131302       -0.46364408       -2.09024845
 C           -1.93750955        1.48269974       -3.32378603
 C           -2.28300695        0.07212864       -3.29483477
 C            0.32125384        2.41731272       -3.39834974
 C            1.70195389        1.96421648       -3.38799482
 C            1.99716280        0.55943087       -3.62792713
 C           -0.64977156        1.61631149       -3.97797182
 C            0.80169933       -1.57456432       -3.61114376
 C           -0.63045137       -1.76113059       -3.44817440
 C           -1.29801890       -0.64316991       -4.06843938
 C            1.01977110       -0.25523373       -4.17418387
 C           -0.28284415        0.30720633       -4.49629418
