   70
C70 / DATE: 7/ 1/2024 / Origin: Program Fullerene / C70 from database
 C            1.33194968       -0.23744357        4.40371002
 C            2.57576325       -0.54632587        3.73925084
 C            2.47918505       -1.89388058        3.19808758
 C            0.47576764       -1.41182119        4.31954004
 C            1.16238288       -2.41207472        3.52088734
 C           -0.84318336       -0.95870426        3.90536799
 C            0.55720976        0.89727058        3.93646863
 C           -0.83381145        0.49018229        3.99822777
 C            0.99842640        1.64527003        2.83987916
 C            3.01595528        0.31819071        2.66618315
 C            2.30321461        1.47495205        2.35184632
 C            2.89832591       -1.84379919        1.80367592
 C            3.46586351       -0.53093277        1.57744606
 C            2.08535261       -2.40552786        0.82316915
 C            0.45306874       -3.08102245        2.53528243
 C            1.04799699       -3.24067151        1.21714572
 C           -1.46927405       -1.57096283        2.81852415
 C           -0.95196808       -2.76392290        2.32880594
 C           -2.37408515       -0.83901073        2.04255245
 C           -1.75787828        1.20192205        3.25974068
 C           -2.68794761        0.46640257        2.42491226
 C            0.05977222        2.39080816        2.11135915
 C           -1.28944290        2.31842456        2.46138496
 C            0.43309533        3.05836168        0.94095563
 C            2.68876861        2.13974787        1.19421291
 C            1.74977160        3.00566995        0.51100676
 C            3.44542947       -0.00394610        0.29621668
 C            3.40019247        1.38164347        0.17853128
 C            2.07294512       -1.84482364       -0.45936825
 C            2.93891122       -0.78191775       -0.74524402
 C            1.12516771       -2.26650408       -1.41142857
 C           -0.03633621       -3.49782919        0.29984357
 C           -1.28245189       -3.18089623        0.98358633
 C            0.08561788       -3.13225361       -1.03131614
 C           -2.79120987       -1.31583872        0.78970743
 C           -2.26976839       -2.50930315        0.27299226
 C           -3.59510943       -0.50895494       -0.01842047
 C           -3.19149104        1.40674327        1.44054922
 C           -2.30696906        2.56411243        1.45540225
 C           -3.67158832        0.91822051        0.23669756
 C           -0.53848298        3.48803707        0.03985404
 C           -1.93719441        3.16739629        0.26384307
 C           -0.28229245        3.38531852       -1.38825361
 C            2.03343866        2.93891398       -0.91773167
 C            3.11323552        1.97821997       -1.11101381
 C            0.98185916        3.01103382       -1.83517926
 C            3.01023145       -0.27955598       -2.03776582
 C            3.10443039        1.16137591       -2.22987821
 C            1.16335970       -1.74859626       -2.71740580
 C            2.13249190       -0.81161299       -3.05937215
 C            0.03826259       -1.83823379       -3.53780797
 C           -1.09162124       -3.14926586       -1.76773485
 C           -2.31971998       -2.74849978       -1.10089790
 C           -1.10481326       -2.60545919       -3.10216299
 C           -3.57230669       -0.68063909       -1.45842741
 C           -3.02799666       -1.83862163       -1.98464830
 C           -2.28103804       -1.75777027       -3.22762015
 C           -3.35443467        1.60784162       -1.00570779
 C           -2.49425720        2.69454265       -0.99420513
 C           -1.45775658        2.79192989       -2.00690253
 C           -3.21431076        0.60377346       -2.04472641
 C           -0.47459985       -0.63360466       -4.17168550
 C           -1.83241087       -0.45745698       -3.69545021
 C           -1.29053087        1.77631507       -2.94588984
 C           -2.16166712        0.67890198       -2.95932082
 C            1.09149470        2.36834791       -3.06816459
 C            2.23905666        1.51949877       -3.33232979
 C            1.75709398        0.28991034       -3.93174084
 C           -0.08043481        1.71723111       -3.63752256
 C            0.35329486        0.47117379       -4.25152327
