   70
C70 / DATE: 7/ 1/2024 / Origin: Program Fullerene / C70 from database
 C            1.58267314       -0.00612350        4.67303923
 C            0.77050916       -1.20011984        4.55409709
 C            1.39341520       -2.07364989        3.57727363
 C            2.65340935       -0.10044977        3.69477111
 C            2.50475105       -1.34360169        2.98083467
 C            2.64477227        1.11441521        2.92515471
 C            0.74907208        1.12488945        4.30155856
 C            1.47647014        1.88629486        3.32192272
 C           -0.59324942       -0.77938976        4.31683911
 C           -0.55073936        0.62180336        3.92429925
 C           -1.40738002       -1.63018684        3.59628029
 C            0.57773140       -2.83835728        2.74552429
 C           -0.80898032       -2.76920568        2.90506845
 C            1.10394808       -3.25486065        1.52630304
 C            2.64581952       -1.35940404        1.59500094
 C            2.20793586       -2.50384924        0.94767696
 C            2.93577069        1.06172746        1.56568126
 C            2.75725071       -0.15222296        0.87457056
 C            2.71538350        2.24840851        0.88589983
 C            0.77709535        2.51963728        2.30673563
 C            1.57949343        3.04997974        1.31309724
 C           -1.09635055        1.00811179        2.69491227
 C           -0.48973198        2.02763033        1.93991423
 C           -2.35388694       -1.04581068        2.67287203
 C           -2.07898200        0.20260677        2.11396108
 C           -1.69043553       -3.09420056        1.79032386
 C           -2.78226916       -2.12706560        1.81358001
 C            0.22126578       -3.65553391        0.44223598
 C           -1.15378600       -3.50099376        0.56855244
 C            2.04711841       -2.50259049       -0.48521430
 C            0.87251016       -3.29900639       -0.80892090
 C            2.53557329       -0.14290784       -0.52263098
 C            2.29058461       -1.34368518       -1.20343563
 C            2.72530420        2.26144528       -0.55534042
 C            2.55377603        1.06742978       -1.23954600
 C            0.96729349        3.59472976        0.13156110
 C            1.92937050        3.41024949       -0.94087016
 C           -1.01818182        2.35969723        0.67998705
 C           -0.37234428        3.32180124       -0.11130017
 C           -2.56818545        0.50129474        0.84195594
 C           -2.03373114        1.57183553        0.12152872
 C           -3.41963239       -1.80727041        0.63078131
 C           -3.38610756       -0.42385392        0.18309658
 C           -1.92609902       -3.38886285       -0.58416249
 C           -3.17151725       -2.64562551       -0.52426594
 C            0.10461719       -2.94985907       -1.91707825
 C           -1.28357628       -3.07685619       -1.85406228
 C            1.83612716       -1.31315084       -2.51451616
 C            0.66468306       -2.10173329       -2.87051504
 C            2.09555320        1.12044748       -2.56217435
 C            1.75901670       -0.05437377       -3.22274657
 C            1.46862887        3.48504620       -2.24009161
 C            1.67974879        2.33876872       -3.10852461
 C           -0.86462829        3.62252867       -1.37865246
 C            0.09613462        3.91379689       -2.43281523
 C           -2.34043995        1.68644855       -1.23633417
 C           -1.90013090        2.78726993       -1.95156363
 C           -3.41575398       -0.43592915       -1.26866251
 C           -3.25395487       -1.80754412       -1.70474516
 C           -2.12691916       -2.11925742       -2.56010707
 C           -2.71676919        0.54908630       -1.94317470
 C           -0.20500346       -1.24997253       -3.66215804
 C            0.57103725       -0.09240436       -4.06687249
 C           -1.52456718       -1.08183389       -3.26145292
 C           -2.02576591        0.21511837       -3.11185519
 C            0.60404068        2.33803211       -4.08634011
 C           -0.38059078        3.31930469       -3.66633438
 C           -1.60384277        2.60364346       -3.36234213
 C           -0.09423443        1.09284525       -4.34029822
 C           -1.46011756        1.24541845       -3.85778691
