   70
C70 / DATE: 7/ 1/2024 / Origin: Program Fullerene / C70 from database
 C            1.31504664        0.03124721        4.91379477
 C            2.55998775       -0.15694143        4.19949798
 C            2.56168917       -1.50130644        3.64297538
 C            0.49833704       -1.15389340        4.70794307
 C            1.28769452       -2.12068711        3.96153915
 C           -0.78498950       -0.72733560        4.16629882
 C            0.50258652        1.18646887        4.59640443
 C           -0.82994727        0.71420307        4.24967516
 C            0.92964875        2.09349050        3.54283987
 C            2.91084267        0.75890104        3.12763299
 C            2.13712814        1.89405537        2.86900203
 C            2.97237094       -1.40951693        2.24770756
 C            3.38453265       -0.04171511        2.00876369
 C            2.23422067       -2.07558974        1.27177539
 C            0.65432654       -2.86392397        2.97824058
 C            1.29568228       -3.01271868        1.68074892
 C           -1.27661932       -1.36102577        3.02679783
 C           -0.74714064       -2.60134884        2.70472302
 C           -1.93094147       -0.62100172        2.02719464
 C           -1.26938318        1.45238171        3.08791714
 C           -0.25613479        2.44313714        2.77783286
 C           -1.86385354        0.77739291        2.03216699
 C           -0.10801700        2.84567350        1.45504679
 C            2.31498092        2.53318134        1.64501476
 C            1.16788623        3.14663180        0.99410866
 C            3.26904874        0.47760031        0.73007767
 C            3.06363938        1.84709306        0.60758863
 C            2.14697706       -1.52978717       -0.01545966
 C            2.86208485       -0.36172314       -0.30782788
 C            1.26029241       -2.07777866       -0.96460735
 C            0.25914858       -3.41410654        0.75919825
 C           -1.01878577       -3.15664742        1.40421494
 C            0.36999664       -3.09271657       -0.58674763
 C           -2.39145384       -1.26969068        0.86540979
 C           -2.01788358       -2.60356191        0.62380786
 C           -2.93413264       -0.49823856       -0.18158080
 C           -1.97861672        1.45189600        0.82780571
 C           -1.08040521        2.48034608        0.52574277
 C           -2.73789617        0.88545730       -0.18579630
 C           -0.93100401        2.87819487       -0.79937580
 C            1.42427094        3.14981253       -0.44005960
 C            2.64469206        2.39243143       -0.66952610
 C            0.35891156        2.99910619       -1.32520652
 C            2.85565472        0.14452296       -1.60071583
 C            2.72069126        1.58190195       -1.78984851
 C            1.16352460       -1.50728912       -2.24468808
 C            2.05838226       -0.51107482       -2.61859879
 C            0.06401805       -1.78151118       -3.06829551
 C           -0.78085256       -3.28914136       -1.34126002
 C           -2.05860624       -3.08116246       -0.67669927
 C           -0.87920977       -2.71577932       -2.66294670
 C           -3.40912763       -1.12874340       -1.33338021
 C           -2.96026102       -2.46925707       -1.61810833
 C           -2.28620614       -2.44308087       -2.90355382
 C           -3.41776298       -0.41496189       -2.59957900
 C           -2.64371244       -1.20161036       -3.55821132
 C           -2.94718171        1.63021578       -1.34583486
 C           -2.00726176        2.69246777       -1.65678162
 C           -3.30400654        0.96765878       -2.58751592
 C           -1.77117953        2.68017824       -3.08514368
 C           -2.60159249        1.63959677       -3.66902803
 C            0.62403475        2.55268784       -2.62513878
 C            1.76479388        1.78604385       -2.85988826
 C            1.63509318        0.51708349       -3.55330325
 C           -0.41251860        2.49181121       -3.55117754
 C           -0.27442348       -0.90403255       -4.10265618
 C           -1.67608884       -0.57678244       -4.33449410
 C           -1.76885958        0.85288768       -4.55747880
 C            0.50745066        0.29941556       -4.32676679
 C           -0.42361101        1.40050812       -4.51220726
