   70
C70 / DATE: 7/ 1/2024 / Origin: Program Fullerene / C70 from database
 C            1.58189302       -0.02592900        4.50118483
 C            0.77172182       -1.22185612        4.37893538
 C            1.33337593       -2.04627697        3.32173694
 C            2.61217221       -0.08746641        3.48153012
 C            2.45325644       -1.32251066        2.74487073
 C            2.56480670        1.14880773        2.73655900
 C            0.73151292        1.11208919        4.19547032
 C            1.37571671        1.87530707        3.14431595
 C           -0.61202359       -0.80639644        4.25939126
 C           -0.60884562        0.61649708        3.95489815
 C           -1.46883608       -1.62887720        3.54892630
 C            0.45933271       -2.71533416        2.46886110
 C           -0.90129815       -2.73083683        2.78674625
 C            0.85631044       -2.96967639        1.15338331
 C            2.57657281       -1.29022332        1.36156348
 C            1.95594620       -2.28834181        0.61858567
 C            2.84769987        1.11945313        1.38096137
 C            2.98621276       -0.11030898        0.72263405
 C            2.44595330        2.21400202        0.63544056
 C            0.58911786        2.43834444        2.14160003
 C            1.21691177        2.80834332        0.94787266
 C           -1.29089261        1.07773163        2.83093852
 C           -0.78392894        2.17457879        2.12904930
 C           -2.47322300       -1.02080685        2.69838031
 C           -2.29603293        0.28967848        2.25798995
 C           -1.87798975       -3.08880700        1.77023061
 C           -2.88899097       -2.03944424        1.75174423
 C           -0.00657439       -3.66982225        0.31141173
 C           -1.43365049       -3.64095324        0.57723307
 C            0.17634187       -3.61702863       -1.12864931
 C            2.25812597       -2.39244174       -0.73229205
 C            1.31255235       -3.01168962       -1.64366094
 C            3.17910788       -0.11290380       -0.66921571
 C            2.84898998       -1.25060719       -1.40534392
 C            2.97206205        2.32957558       -0.63674072
 C            3.27808280        1.10419755       -1.34905015
 C            2.37649632        3.26201559       -1.56681488
 C            0.47115325        3.45626569       -0.04346630
 C            1.06768813        3.79428621       -1.25644766
 C           -1.56479447        2.74653606        1.13649633
 C           -0.91888192        3.45110868        0.04240359
 C           -2.93769301        0.71454484        1.09002355
 C           -2.66726639        1.98104630        0.58354336
 C           -3.44862057       -1.64009227        0.54761779
 C           -3.53824518       -0.22082891        0.24697918
 C           -2.10960037       -3.31236747       -0.66788657
 C           -1.12149255       -3.35984509       -1.73429562
 C           -3.09836555       -2.33408672       -0.68153904
 C           -1.22260078       -2.48711966       -2.81205375
 C            1.21678552       -2.17244151       -2.82803748
 C            2.17871017       -1.09533471       -2.68922069
 C           -0.02050360       -1.90589319       -3.39028972
 C            2.68757040        1.22201214       -2.67372674
 C            2.29859238        2.60554473       -2.86182801
 C            1.87835244        0.18775248       -3.14051822
 C            0.27810096        3.72330176       -2.47376242
 C            0.99815673        2.88632831       -3.42034102
 C           -1.71331328        3.22914120       -1.15730584
 C           -2.66718660        2.17990124       -0.85803284
 C           -1.08715414        3.23486742       -2.39156078
 C           -3.41754220       -0.05996754       -1.19454044
 C           -3.14929471       -1.36746153       -1.76780025
 C           -2.26533640       -1.47210395       -2.82974550
 C           -2.77956947        1.07256278       -1.69641985
 C           -0.33370023       -0.55100540       -3.80457087
 C            0.61602886        0.46259865       -3.69846938
 C            0.13917210        1.77231484       -3.75939574
 C           -1.18862591        2.05633900       -3.23647304
 C           -1.70260650       -0.26423081       -3.40402738
 C           -1.99590327        0.98424367       -2.85598618
