   70
C70 / DATE: 7/ 1/2024 / Origin: Program Fullerene / C70 from database
 C            1.42695136        0.07504649        4.85180186
 C            0.63880750       -1.14009061        4.76269169
 C            1.25322770       -2.00302182        3.76929846
 C            2.55627546       -0.07014832        3.95249360
 C            2.54803829       -1.42550897        3.43856698
 C            2.51356022        1.02158783        2.99763434
 C            0.60366888        1.16429599        4.35543214
 C            1.26725011        1.73859073        3.20847995
 C           -0.73932309       -0.74891353        4.56256716
 C           -0.73903072        0.66048524        4.17910677
 C           -1.55700150       -1.61534979        3.85538522
 C            0.45165009       -2.54237358        2.75750304
 C           -0.93414765       -2.55568839        2.92646873
 C            0.99285448       -2.75188683        1.48403273
 C            3.06083333       -1.63562453        2.17050379
 C            2.35512526       -2.53465654        1.28336486
 C            2.91652174        0.77533918        1.68720289
 C            3.42968704       -0.48052197        1.36307322
 C            2.37296585        1.55075218        0.66580430
 C            0.51649862        2.07795147        2.09170086
 C            1.19415489        2.26481071        0.89748318
 C           -1.47206935        1.05594269        3.05901246
 C           -0.85601739        1.80672146        2.04267491
 C           -2.70442069       -1.04646235        3.18207319
 C           -2.62779132        0.34227702        2.76728775
 C           -1.79118523       -2.66100154        1.75715195
 C           -2.95701762       -1.84158278        1.99635489
 C            0.14943481       -2.89808928        0.37495089
 C           -1.21346348       -2.63836147        0.49404377
 C            0.69761324       -3.04348017       -0.89433428
 C            2.84609167       -2.25511083       -0.05268954
 C            3.41523101       -0.91604463       -0.02765208
 C            2.06840188       -2.62608808       -1.13392197
 C            2.76298305        1.30457014       -0.64618726
 C            3.05775428       -0.00914687       -1.02288521
 C            2.39512931        2.22943619       -1.61300932
 C            0.51223833        2.82265293       -0.17663560
 C            1.22043333        3.04321191       -1.35612244
 C           -1.54155138        2.06307060        0.84426031
 C           -0.88388271        2.75160681       -0.18887687
 C           -3.19629137        0.41999847        1.44093656
 C           -3.36791421       -0.93331917        0.95170089
 C           -2.71248507        1.35613941        0.54111764
 C           -1.91643578       -2.08310808       -0.58741465
 C           -2.96264736       -1.17846639       -0.35045325
 C           -0.08982503       -2.66316438       -2.05439707
 C           -1.38748060       -2.18979685       -1.88290903
 C            2.06581234       -1.78390687       -2.31552928
 C            2.60033218       -0.50177363       -2.25182729
 C            0.79586351       -1.98373244       -2.98986067
 C            2.35025324        1.80728311       -2.99575854
 C            2.27842785        0.38800349       -3.26954461
 C            0.51781436        3.22912321       -2.61180187
 C            1.21166516        2.45130112       -3.62587238
 C           -1.58364099        3.01750379       -1.36836688
 C           -0.86728817        3.25264119       -2.61288506
 C           -3.04063883        1.16711282       -0.79849578
 C           -3.16032717       -0.15153117       -1.26337641
 C           -2.73907155        2.19946652       -1.67497830
 C           -1.96025626       -1.45390998       -2.92170144
 C           -2.95611842       -0.45194224       -2.60104664
 C            0.28349246       -0.96795547       -3.79148489
 C            1.08273129        0.14607429       -4.06773085
 C            0.47843377        1.43990826       -4.36750311
 C           -1.09742739       -0.89060015       -3.95081996
 C           -1.58467183        2.57087863       -3.68092533
 C           -2.77608179        1.97251487       -3.10600702
 C           -2.86587484        0.61100963       -3.58107263
 C           -0.90171647        1.55019571       -4.46308963
 C           -1.70511260        0.34485563       -4.41499387
