   70
C70 / DATE: 7/ 1/2024 / Origin: Program Fullerene / C70 from database
 C            1.60907763       -0.01701879        4.59329996
 C            0.79184959       -1.18462380        4.33804460
 C            1.34711367       -1.88650946        3.19307772
 C            2.66412959        0.00523431        3.59669611
 C            2.45278718       -1.09214619        2.68300568
 C            2.69216628        1.33156113        3.03889297
 C            0.77370542        1.15272903        4.37168117
 C            1.46828230        2.00822144        3.44303270
 C           -0.58524964       -0.74067065        4.25661293
 C           -0.54821834        0.69281219        4.01274623
 C           -1.45145520       -1.50386777        3.49475833
 C            0.46064506       -2.46071194        2.28722600
 C           -0.88527376       -2.53160286        2.63359558
 C            0.79700786       -2.49386526        0.93550246
 C            2.51864472       -0.84079953        1.31660284
 C            1.83410631       -1.68565937        0.45478099
 C            3.07838462        1.49485493        1.71804513
 C            2.97760894        0.39622876        0.83865641
 C            2.82904912        2.75817466        1.21229456
 C            0.74809334        2.67029233        2.45244654
 C            1.52290112        3.32881801        1.49910110
 C           -1.16266927        1.19790788        2.86541979
 C           -0.51203894        2.16662475        2.07485689
 C           -2.45814783       -0.82385454        2.70238039
 C           -2.26643535        0.50931828        2.35457090
 C           -1.86363549       -2.79743060        1.59627074
 C           -2.88759916       -1.76579224        1.68463189
 C           -0.07176401       -3.10935193        0.03167315
 C           -1.43539021       -3.19393381        0.33544147
 C            0.36420496       -3.30992057       -1.27447450
 C            2.05312494       -1.57920593       -0.91125082
 C            1.51580798       -2.55670122       -1.74238825
 C            3.02351884        0.61182646       -0.55406463
 C            2.51344619       -0.36237562       -1.43679022
 C            3.14240817        3.02429878       -0.16520507
 C            3.32638010        1.88872733       -1.03735709
 C            0.94120979        3.68480203        0.22351159
 C            2.04575906        3.80939300       -0.70661845
 C           -1.04863078        2.50945940        0.82385768
 C           -0.22490392        3.04177454       -0.16690650
 C           -2.93419199        1.00788013        1.24604863
 C           -2.31086006        2.05682300        0.46522164
 C           -3.45652364       -1.29362879        0.50598802
 C           -3.58700337        0.08654089        0.32291603
 C           -2.37353115       -3.13279407       -0.69073825
 C           -3.42979069       -2.13563863       -0.60365191
 C           -0.60184767       -3.37541841       -2.36028418
 C           -1.95096058       -3.22688634       -2.07520442
 C            1.30762740       -2.25200372       -3.13655251
 C           -0.03997007       -2.66260182       -3.49431737
 C            2.24042083       -0.02341405       -2.77852060
 C            1.48033153       -0.88461783       -3.55699619
 C            2.80069536        2.30105459       -2.31744521
 C            1.85302229        3.37769030       -2.06948419
 C            2.12073130        1.31485889       -3.11517098
 C           -0.45104479        2.71375155       -1.51406226
 C            0.54826621        2.88733164       -2.46411770
 C            0.78590145        1.81431720       -3.40226628
 C           -2.57826285        1.78974366       -0.93610205
 C           -3.49470594        0.66847732       -1.01083189
 C           -1.53130101        1.89849931       -1.84500332
 C           -3.63109546       -1.58323667       -1.92920802
 C           -2.73794166       -2.27394766       -2.84352938
 C           -3.46001902       -0.15779938       -2.12152612
 C           -0.74050573       -1.50160264       -4.02372306
 C            0.19547043       -0.39322914       -4.03031130
 C           -0.21588806        0.87262757       -3.61361267
 C           -1.42397599        0.99489788       -2.91478144
 C           -2.05466099       -1.27141622       -3.64233608
 C           -2.41838693        0.03672429       -3.11805591
