   70
C70 / DATE: 7/ 1/2024 / Origin: Program Fullerene / C70 from database
 C            1.32905526        0.06001848        4.94138831
 C            0.56975251       -1.12757934        4.59513619
 C            1.46666549       -2.04035415        3.92850140
 C            2.60707062       -0.02011337        4.25280127
 C            2.70693613       -1.32776597        3.64986247
 C            2.70974653        1.13464872        3.38970100
 C            0.61487500        1.21228331        4.41513756
 C            1.52967644        1.95994997        3.59227188
 C           -0.62094497       -0.70280283        3.88649029
 C           -0.60109041        0.74738586        3.79873950
 C           -1.05767017       -1.41175093        2.76893492
 C            1.02782747       -2.63736284        2.68498690
 C           -0.27846831       -2.44513091        2.23024970
 C            2.95140759       -1.41684825        2.21889691
 C            2.10215153       -2.47836038        1.72654104
 C            3.17871094        0.99302324        2.08459300
 C            3.08267395       -0.25833736        1.45206536
 C            3.10243436        2.13805813        1.30397214
 C            1.04295341        2.63924736        2.48195388
 C            2.02031078        3.06487762        1.59519877
 C           -1.01372353        1.32694980        2.60390464
 C           -0.23169755        2.30939290        1.97285808
 C           -1.96309951       -0.77379575        1.92887945
 C           -1.93196794        0.62113819        1.84115970
 C           -2.53429982       -1.50165030        0.89150743
 C           -0.55299881       -2.85575149        0.92224723
 C           -1.80861670       -2.57497002        0.37340840
 C            1.74706300       -2.48588110        0.39139391
 C            0.53384929       -3.07127596        0.06728766
 C            2.80771603       -0.33172528        0.07643334
 C            2.25135730       -1.50540477       -0.46485964
 C            3.19479472        2.03041624       -0.13406521
 C            3.01596347        0.78970982       -0.73263247
 C            1.62562105        3.69400101        0.36228271
 C            2.49601669        3.18044590       -0.68092508
 C           -0.61519873        2.75406869        0.68912596
 C            0.26330975        3.51878803       -0.08010592
 C           -2.49348757        1.23983296        0.73770632
 C           -1.72864224        2.18660154        0.05240386
 C           -3.51537908       -0.87752031        0.12430612
 C           -3.52253213        0.57288924        0.08569262
 C           -3.82168186       -1.36187486       -1.20969887
 C           -2.12595942       -3.09481985       -0.88059777
 C           -3.06487070       -2.39657679       -1.74118233
 C            0.31108217       -3.35967027       -1.26615854
 C           -1.04688952       -3.57514902       -1.71805126
 C            1.89234074       -1.56375197       -1.82017847
 C            0.99714201       -2.54533197       -2.25286739
 C            2.65234743        0.75317819       -2.07551025
 C            2.09759956       -0.46114653       -2.63712789
 C            1.68927634        2.99495315       -1.86892727
 C            0.31128090        3.30345867       -1.51547340
 C            1.93401907        1.88177432       -2.65558388
 C           -1.84968250        2.30615803       -1.34003904
 C           -0.71564653        2.57836594       -2.10384112
 C           -3.90161396        0.98662584       -1.24680398
 C           -4.15025105       -0.21086770       -2.03407016
 C           -2.98488432        1.82780196       -1.98399462
 C           -3.48383248       -0.04650888       -3.31101746
 C           -2.82722859        1.25028236       -3.30406411
 C           -2.44657940       -2.25431507       -3.05656086
 C           -1.18260589       -2.95992968       -3.02659169
 C            0.03929229       -2.22397370       -3.30208234
 C           -2.50993949       -1.03957373       -3.72645057
 C            1.06694790       -0.08178591       -3.59422027
 C            0.84738869        1.34564870       -3.45009802
 C           -0.44713608        1.80243373       -3.23726701
 C           -1.48105264        1.07636009       -3.81512051
 C           -0.03142694       -0.91760072       -3.78232014
 C           -1.27555764       -0.34351001       -4.06953239
