   70
C70 / DATE: 7/ 1/2024 / Origin: Program Fullerene / C70 from database
 C            1.39885975        0.08940225        5.21274209
 C            0.64137347       -1.08405865        4.82127659
 C            1.57908925       -1.99294409        4.21056915
 C            2.62217368        0.09353174        4.42528890
 C            2.79603164       -1.23989080        3.91512640
 C            2.52416089        1.18667415        3.47752403
 C            0.63517889        1.25188913        4.81176465
 C            1.51533649        2.08246068        4.01385314
 C           -0.49631542       -0.64033869        4.03610190
 C           -0.60147701        0.79935207        4.19202080
 C           -0.72658798       -1.19247254        2.77906078
 C            1.19850816       -2.64737586        2.97596803
 C           -0.00092308       -2.31003608        2.34131869
 C            3.04869632       -1.41089921        2.49972467
 C            2.40144633       -2.66040033        2.17416083
 C            2.54613006        0.93165135        2.09636700
 C            2.89091767       -0.33653152        1.61286755
 C            2.00582123        1.88614102        1.22749638
 C            0.90945880        2.95113686        3.13395771
 C            1.43922146        3.03114237        1.78960078
 C           -1.09757631        1.55958176        3.13545020
 C           -0.52387488        2.81591491        2.94985580
 C           -1.47954958       -0.46718919        1.86141840
 C           -1.67293829        0.90869664        2.03216549
 C           -1.86355098       -1.07279019        0.67407259
 C           -0.16578687       -2.74822239        1.02180847
 C           -1.18187154       -2.20825160        0.23036759
 C            2.25756686       -2.96065153        0.84214407
 C            0.93141124       -3.31499183        0.38134116
 C            2.71499184       -0.63521591        0.25636896
 C            2.72368694       -1.97659977       -0.11238127
 C            1.73398356        1.55056356       -0.11195830
 C            2.13057731        0.30206143       -0.60912474
 C            0.97289857        2.41232549       -0.92141044
 C            0.43739173        3.75996012        1.05268436
 C           -0.82823945        3.55656455        1.75184716
 C            0.21195741        3.41346233       -0.32600220
 C           -2.18328121        1.66633736        0.96578480
 C           -1.74420935        2.97833339        0.79678100
 C           -1.22326031        3.35092317       -0.49658640
 C           -2.69825007       -0.38176556       -0.19548572
 C           -2.69233790        1.01520380       -0.16531995
 C           -3.16782277       -1.04184947       -1.32557706
 C           -1.29270292       -2.59849840       -1.11184544
 C           -2.39971616       -2.16318953       -1.83864357
 C            1.00745356       -3.23845890       -1.05823468
 C            2.12776068       -2.35966906       -1.36497910
 C           -0.15658424       -3.05894609       -1.79066006
 C            1.81727890       -0.05900295       -1.93622194
 C            1.92511596       -1.40243897       -2.33856423
 C            0.52798435        1.96658166       -2.16601452
 C            1.13061757        0.85563872       -2.75083793
 C           -1.68110455        2.64669280       -1.58546047
 C           -2.69496222        1.72152444       -1.37572532
 C           -0.75659823        2.35360771       -2.57298953
 C           -3.62652213       -0.25786830       -2.45598816
 C           -3.26370356        1.14320232       -2.50618698
 C           -2.30905811       -2.01615167       -3.28403509
 C           -3.14765166       -0.89381916       -3.67312296
 C            0.03124831       -2.69116441       -3.11995701
 C            1.17243096       -1.84030522       -3.41756681
 C           -1.08773452       -2.22787050       -3.91169003
 C            0.76238914        0.50097567       -4.05158710
 C            0.77643457       -0.89286337       -4.42326205
 C           -0.56244203       -1.25509984       -4.86105473
 C           -1.26386598        1.91835898       -3.78685159
 C           -2.61859312        1.38662065       -3.79122600
 C           -2.60920889        0.14238540       -4.53758839
 C           -0.44517341        1.07049358       -4.62257163
 C           -1.28210881       -0.02157046       -5.10216873
