   70
C70 / DATE: 7/ 1/2024 / Origin: Program Fullerene / C70 from database
 C            1.08210548       -0.15125442        4.86392768
 C            2.31643310       -0.40229411        4.14097704
 C            2.21651607       -1.72170465        3.54376408
 C            0.22864269       -1.31889334        4.70448635
 C            0.85998090       -2.19424668        3.73764346
 C           -1.11527093       -0.85664421        4.44313887
 C            0.29200376        1.02107300        4.53082264
 C           -1.08874290        0.59657746        4.39230579
 C            0.79465376        1.96034654        3.63899840
 C            2.72725333        0.52175913        3.09882465
 C            2.06837106        1.73273509        2.96156954
 C            2.71874867       -1.63703197        2.18357913
 C            3.03903292       -0.24861858        1.90507122
 C            2.07373261       -2.35967486        1.19194152
 C            0.15838211       -2.62355852        2.61371441
 C            0.90061394       -3.05043389        1.51542840
 C           -1.78800579       -1.32029827        3.24623764
 C           -1.18242639       -2.25717511        2.41363917
 C           -1.84414658        1.01202768        3.21966012
 C           -2.42743243       -0.17635492        2.62944316
 C           -0.10244026        2.58094571        2.67685163
 C           -1.32588179        1.98540144        2.37270304
 C            1.97164076        2.32987856        1.64303812
 C            0.72573050        3.06922210        1.59159362
 C            2.73585528        0.26868796        0.64170245
 C            2.35925495        1.60967233        0.51210104
 C            2.28153330       -1.97290564       -0.12835590
 C            2.49373694       -0.61944405       -0.41403036
 C            1.86271114       -2.83318156       -1.12943873
 C            0.22808354       -3.72964266        0.50925676
 C            0.84254674       -3.80873660       -0.80133059
 C           -1.74306481       -2.45102975        1.14850216
 C           -1.17524876       -3.41796711        0.32138254
 C           -2.62587096       -0.20599897        1.25647145
 C           -2.51902602       -1.42594042        0.59163541
 C           -1.79251262        2.05422172        1.05934430
 C           -2.51267612        0.97803787        0.52440831
 C            0.15091461        3.25316035        0.34799557
 C           -1.20556111        2.97545097        0.19544969
 C            1.92765988        2.07578611       -0.73053713
 C            0.97478805        3.10029597       -0.75813062
 C            2.22696883       -0.11402140       -1.69371489
 C            2.10379870        1.27212301       -1.85665991
 C            1.55669445       -2.30273072       -2.43758267
 C            1.86773872       -0.98512518       -2.73623267
 C           -0.21057990       -3.70900388       -1.79642668
 C           -1.44979646       -3.41620494       -1.10703822
 C            0.24597316       -2.79985567       -2.82910026
 C           -2.90464041       -1.48386732       -0.74202649
 C           -2.29331476       -2.45241004       -1.63420281
 C           -2.85231701        0.97386748       -0.83357011
 C           -3.07244989       -0.24205190       -1.47751959
 C           -1.77614543        3.16601921       -1.05677517
 C           -2.58623595        2.09688188       -1.61265684
 C            0.50093765        3.57076874       -1.97408311
 C           -0.93703267        3.68707800       -2.12572526
 C            1.84048359        1.81179008       -3.11407735
 C            1.03321507        3.01332604       -3.20001555
 C            1.26481103       -0.46969289       -3.87559795
 C            1.39924235        0.93551089       -4.17366233
 C           -0.65039933       -1.90759967       -3.41383532
 C           -1.92724006       -1.75880775       -2.86500760
 C           -2.54804213       -0.44220696       -2.82075518
 C           -0.10977260       -0.85801479       -4.15146277
 C           -2.19087634        1.91566929       -3.00306974
 C           -1.30818832        3.01455245       -3.35695572
 C           -0.08897573        2.73709147       -4.08642931
 C            0.10147565        1.41003452       -4.62804001
 C           -1.94989276        0.62571052       -3.47982294
 C           -0.86805804        0.36891984       -4.32373962
