   70
C70 / DATE: 7/ 1/2024 / Origin: Program Fullerene / C70 from database
 C            1.58028736        0.02531253        4.61009780
 C            0.75925314       -1.14772408        4.38415857
 C            1.33083242       -1.90185084        3.28115011
 C            2.65852288        0.00261406        3.63847355
 C            2.50864331       -1.18138077        2.82655286
 C            2.66981602        1.27951222        2.96568488
 C            0.75836147        1.18999297        4.32600977
 C            1.47389122        2.00185155        3.37601807
 C           -0.60976477       -0.69640326        4.25666615
 C           -0.56025418        0.72762431        3.95920857
 C           -1.46591884       -1.47797243        3.50770123
 C            0.46296124       -2.45350830        2.33293908
 C           -0.89412328       -2.50153217        2.64008149
 C            0.87079021       -2.52653884        0.99299692
 C            2.71838428       -1.08349319        1.46278182
 C            2.14257695       -2.05590701        0.66071669
 C            3.02195728        1.33172096        1.61816935
 C            3.08875221        0.13838277        0.87964241
 C            2.71450607        2.51452970        0.95116401
 C            0.76739473        2.66863314        2.38715475
 C            1.55935044        3.26299055        1.41719755
 C           -1.14517028        1.19816706        2.77874292
 C           -0.51566862        2.20562699        2.02718843
 C           -2.46857716       -0.80896656        2.71203854
 C           -2.19651639        0.46639399        2.21795451
 C           -1.85828377       -2.73820236        1.58423332
 C           -2.96804309       -1.81930647        1.80789529
 C           -0.06538427       -2.77504958       -0.02674894
 C           -1.41672802       -2.96030483        0.28403218
 C            0.35141166       -2.78788548       -1.36651495
 C            2.60043396       -2.16825618       -0.63828738
 C            1.71470416       -2.70727275       -1.64668157
 C            3.19416084        0.19334123       -0.51535470
 C            3.26528169       -1.01238043       -1.21115338
 C            2.69159046        2.53790450       -0.49772178
 C            2.75969366        1.33852904       -1.18906985
 C            0.93298865        3.88258484        0.27965323
 C            1.70474315        3.52205462       -0.89988380
 C           -1.09447001        2.61620374        0.81461433
 C           -0.44712594        3.55899526        0.01202208
 C           -2.73547407        0.84265999        0.98626290
 C           -2.18241027        1.91541583        0.28488002
 C           -3.71136229       -1.40614280        0.71956358
 C           -3.66219889        0.00147718        0.35731727
 C           -2.36151279       -2.91004629       -0.73471068
 C           -3.59143366       -2.17062544       -0.50551944
 C           -0.58494183       -2.63363030       -2.39966870
 C           -1.93643207       -2.63309775       -2.09029126
 C           -0.22068933       -1.97951993       -3.57350826
 C            2.16584634       -2.17729742       -2.92025862
 C            3.00797785       -1.02526488       -2.63845782
 C            1.17541163       -1.76729685       -3.88793725
 C            2.09163828        1.21974072       -2.41195952
 C            2.37743714        0.13574452       -3.23133972
 C            1.35354546       -0.34427811       -4.13550119
 C            0.76044970        3.17214381       -1.94350645
 C           -0.56642441        3.46620153       -1.43089590
 C            0.95667849        2.00026991       -2.66818889
 C           -2.57344269        2.15243306       -1.03478790
 C           -1.64366798        2.77829842       -1.95453702
 C           -3.86421970        0.08584641       -1.08026093
 C           -3.78089869       -1.25709734       -1.61734909
 C           -2.76360372       -1.55075198       -2.60802962
 C           -3.26177214        1.11575165       -1.77880395
 C           -0.94378105       -0.77611775       -3.94376746
 C            0.04488805        0.28042323       -4.09153914
 C           -0.12242747        1.45760668       -3.37423099
 C           -1.41919410        1.83658044       -3.04013972
 C           -2.14777662       -0.50551150       -3.29519839
 C           -2.45547003        0.81705446       -2.95915996
