   70
C70 / DATE: 7/ 1/2024 / Origin: Program Fullerene / C70 from database
 C            1.59480312        0.12675751        5.23989868
 C            0.79289119       -1.08343732        5.21216723
 C            1.49484896       -2.05484945        4.39373349
 C            2.64754158       -0.01985067        4.24816722
 C            2.64208211       -1.38940120        3.79267482
 C            2.47709698        1.02612521        3.26169282
 C            0.74530045        1.22952208        4.82414505
 C            1.35104582        1.85031797        3.66066143
 C           -0.56630816       -0.71181514        4.85319758
 C           -0.61268780        0.73699251        4.70886361
 C           -1.28152685       -1.51414092        3.96903538
 C            0.77185071       -2.72881559        3.33005228
 C           -0.60474130       -2.57691075        3.23322728
 C            2.59747499       -1.63827213        2.36343848
 C            1.57377209       -2.63247435        2.12178333
 C            2.61931577        0.74048816        1.90754090
 C            2.70618459       -0.58320970        1.45731483
 C            2.15432730        1.69194221        1.01411110
 C            0.52585857        2.35309649        2.65699304
 C            1.04476672        2.46543130        1.36909267
 C           -1.43028848        1.30429427        3.73855658
 C           -0.85872757        2.26278051        2.80231157
 C           -2.26188921       -0.91134112        3.07801615
 C           -2.35422698        0.46807475        2.98806404
 C           -1.22233004       -2.66613776        1.92455749
 C           -2.30243627       -1.70278244        1.86216144
 C            0.94820804       -2.61763329        0.88069219
 C           -0.43033253       -2.82197273        0.79340827
 C            2.38401240       -0.84504764        0.11943893
 C            1.58632959       -1.95586650       -0.17168300
 C            2.42243290        1.50897040       -0.33266985
 C            2.45815926        0.19494958       -0.81036545
 C            2.04235313        2.53598653       -1.18188474
 C            0.21561296        2.94103168        0.35441802
 C            0.80066868        3.21826104       -0.87421613
 C           -1.69555507        2.25434778        1.61073354
 C           -2.54582000        1.08123728        1.68411427
 C           -1.12912899        2.57901219        0.38334143
 C           -2.55250079       -1.09736067        0.63396479
 C           -2.67674635        0.29070443        0.54600028
 C           -1.02694308       -2.60516081       -0.44143363
 C           -2.15874519       -1.78584072       -0.51051309
 C            1.05641301       -2.09852708       -1.45391952
 C           -0.21241721       -2.67149294       -1.56060120
 C            2.15999249       -0.07295333       -2.15228803
 C            1.52967615       -1.27579189       -2.48147514
 C            2.09629731        2.32438102       -2.60886789
 C            2.19385036        0.96457654       -3.08433693
 C           -0.01729716        3.16313032       -2.07139973
 C            0.88669334        2.89604201       -3.17569936
 C           -1.71141282        2.06260195       -0.77725044
 C           -2.47441135        0.88897075       -0.69711316
 C           -1.24345975        2.50365817       -2.01843014
 C           -2.51065036       -1.26316017       -1.75398715
 C           -2.67614146        0.12498211       -1.84512068
 C           -0.84677634       -2.69333657       -2.79174392
 C           -2.11307524       -1.99305233       -2.87410971
 C            1.06933054       -1.48677700       -3.78336932
 C           -0.08014914       -2.34785495       -3.96648449
 C            1.37069877        0.88664373       -4.27667728
 C            0.44210813        2.01412099       -4.23418690
 C            0.91748926       -0.35733134       -4.68841889
 C           -1.77393325        1.95201923       -3.18556604
 C           -2.60785475        0.77129842       -3.07668033
 C           -0.92118888        1.77942441       -4.35667397
 C           -2.21903036       -1.41376549       -4.19704598
 C           -0.98666940       -1.71543740       -4.90891329
 C           -0.39172021       -0.45664518       -5.31432496
 C           -2.45898983        0.00642154       -4.30074444
 C           -1.36337512        0.58985149       -5.05937543
