   70
C70 / DATE: 7/ 1/2024 / Origin: Program Fullerene / C70 from database
 C            1.25722578       -0.24535075        5.34791677
 C            0.40507829       -1.40796236        5.18441592
 C            1.07714383       -2.33395502        4.28774300
 C            2.46402592       -0.46698923        4.57006824
 C            2.37204241       -1.77395489        3.94934091
 C            2.65478319        0.69166572        3.71807697
 C            0.56823991        0.89720338        4.76898552
 C            1.48340612        1.54772842        3.86266873
 C           -0.80935324       -0.97156116        4.52155327
 C           -0.69453583        0.44636891        4.23183448
 C            0.15458740       -2.66079129        3.21069681
 C           -1.04432531       -1.86672853        3.40667780
 C            0.64287265       -2.80196449        1.90981714
 C            2.82699663       -1.91672239        2.64770859
 C            2.00850070       -2.63833445        1.68428545
 C            3.19530289        0.52445664        2.44295167
 C            3.39459719       -0.76740118        1.95012147
 C            3.02860416        1.56994539        1.54028740
 C            0.98055919        2.15252452        2.71713243
 C            1.91645485        2.48074607        1.75213361
 C           -1.06995724        0.87802242        2.96214245
 C           -0.33690730        1.87771664        2.30953198
 C           -1.64546806       -1.34822502        2.27416938
 C           -1.85409713        0.02773314        2.19177804
 C           -0.24334101       -2.63298421        0.83672337
 C           -1.48188858       -2.04148689        1.08274731
 C            0.24947424       -2.63624845       -0.47183831
 C            2.46088332       -2.23292444        0.37041247
 C            3.26272896       -1.03091725        0.52186176
 C            1.58327424       -2.28834226       -0.69483554
 C            3.11977288        1.32398618        0.10907687
 C            3.06411323        0.02259935       -0.37099443
 C            1.46627618        2.93825520        0.46344007
 C            2.33384517        2.35204677       -0.54488358
 C           -0.77158213        2.29524590        1.03785890
 C            0.10588402        3.00240959        0.20525960
 C           -2.40016879        0.51307860        1.01559108
 C           -1.92890239        1.71637779        0.49073912
 C           -2.25960064       -1.63376739        0.00673030
 C           -2.93045032       -0.41902375        0.13818446
 C           -0.65198449       -2.52512034       -1.53862457
 C           -1.95885478       -2.11240679       -1.26804579
 C           -0.13203067       -2.36437112       -2.82613386
 C            1.88086721       -1.50838958       -1.79862965
 C            2.40597993       -0.22896238       -1.58144360
 C            1.19057223       -1.78463734       -2.96415915
 C            1.79246059        2.10433870       -1.79787353
 C            1.97786606        0.84671003       -2.37622458
 C           -0.25499031        3.25091628       -1.11184713
 C            0.67643180        2.85563643       -2.15744693
 C           -2.39869792        2.12283356       -0.76658968
 C           -1.58700714        2.92020967       -1.56751984
 C           -3.69563608        0.05045585       -0.91170425
 C           -3.44028713        1.40572340       -1.36403883
 C           -2.82824657       -1.80321909       -2.31432856
 C           -3.84410234       -0.79403132       -2.07818344
 C           -0.96133907       -1.83257486       -3.89496043
 C           -2.30438729       -1.59117399       -3.65368257
 C            1.13878868       -0.77778017       -3.99931704
 C            1.41986155        0.59292809       -3.62863416
 C           -0.18086866       -0.82780065       -4.60322508
 C           -0.09311507        2.49747864       -3.33402259
 C           -1.49875797        2.66818094       -3.00187494
 C            0.31183002        1.41236608       -4.09799407
 C           -0.68482121        0.53334860       -4.69192660
 C           -3.57561909        1.41454896       -2.81231469
 C           -3.91733370        0.06883458       -3.24191448
 C           -2.89922972       -0.37043333       -4.17686975
 C           -2.45534580        1.86929693       -3.61171545
 C           -2.03809844        0.76461899       -4.46686622
