   70
C70 / DATE: 7/ 1/2024 / Origin: Program Fullerene / C70 from database
 C            1.43327576        0.09285611        4.78237974
 C            0.68543218       -1.13968148        4.59649638
 C            1.41281376       -1.95760175        3.64215536
 C            2.62509168        0.00281123        3.96401545
 C            2.73786398       -1.37094492        3.51232444
 C            2.57102874        1.04756876        2.95060284
 C            0.62481376        1.17308804        4.25449499
 C            1.29655626        1.72174556        3.09023324
 C           -0.68211337       -0.77912625        4.28792909
 C           -0.71970668        0.66286445        4.08097384
 C           -1.38657159       -1.58361405        3.40096872
 C            0.74803540       -2.42737275        2.50262132
 C           -0.64394125       -2.44459726        2.48702649
 C            1.45406399       -2.57372439        1.30335890
 C            3.42651376       -1.58409946        2.33573953
 C            2.84100878       -2.47433949        1.35688493
 C            3.04324931        0.73595185        1.67888660
 C            3.82030533       -0.41455046        1.57290324
 C            2.35400174        1.20527709        0.54554946
 C            0.53662688        1.96442672        1.95658325
 C            1.11279645        1.83625047        0.69288601
 C           -1.47122935        1.14479935        3.01843314
 C           -0.85173002        1.96991061        2.06971853
 C           -2.46672915       -0.98339056        2.63962920
 C           -2.58095785        0.40252678        2.62542048
 C           -1.33399335       -2.43810868        1.20988343
 C           -2.56650939       -1.69527363        1.37496072
 C            0.78427814       -2.43740800        0.07078959
 C           -0.60023183       -2.26577256        0.04888078
 C            1.49580403       -2.39008615       -1.13867385
 C            3.58432274       -2.23620067        0.14400081
 C            4.17445902       -0.90553929        0.26773171
 C            2.88499064       -2.25579620       -1.11803137
 C            2.81284271        0.87376201       -0.73782425
 C            3.74257204       -0.15934630       -0.88874484
 C            3.47433174       -1.17519905       -1.87979468
 C            2.07441245        1.24673793       -1.86913789
 C            0.33176107        2.12239274       -0.42840656
 C            0.82095246        1.86152997       -1.71697268
 C           -1.60610028        2.42378734        0.99466056
 C           -0.97464034        2.58982920       -0.24486246
 C           -3.41855379        0.96249050        1.67660598
 C           -2.97707036        2.18483666        1.04430701
 C           -3.10736248       -1.01379277        0.28950635
 C           -3.86492759        0.11396487        0.58849408
 C           -1.20888111       -1.70061676       -1.06798147
 C           -2.47601814       -1.09680570       -0.96180940
 C            0.83464836       -2.02127355       -2.31963757
 C           -0.54059843       -1.74110174       -2.28963530
 C            2.80995956       -0.77829860       -3.01161802
 C            2.38416915        0.60316870       -3.07097038
 C            1.62083544       -1.51785716       -3.36265664
 C            1.45096645        0.64867669       -4.17316549
 C            1.01569234       -0.72646466       -4.40946550
 C            0.01968597        2.12740824       -2.84520420
 C            0.26447758        1.45188352       -4.03954031
 C           -1.71014743        3.01512876       -1.34505257
 C           -1.26386507        2.64365901       -2.67125757
 C           -3.77993416        2.33007385       -0.14946576
 C           -4.27730184        0.99824784       -0.47790840
 C           -3.15316989        2.86785830       -1.33481076
 C           -3.01304159       -0.39401290       -2.05404020
 C           -2.38075364        1.97867952       -3.34256332
 C           -3.84712723        0.70091983       -1.82294860
 C           -3.49107044        1.97181273       -2.42162101
 C           -1.19331382       -1.28986526       -3.43466303
 C           -0.42114747       -0.71722385       -4.51759707
 C           -0.81278731        0.67342879       -4.61767578
 C           -2.36982584       -0.45526840       -3.28861588
 C           -2.11328758        0.79400069       -4.00568340
