   70
C70 / DATE: 7/ 1/2024 / Origin: Program Fullerene / C70 from database
 C            1.54667573       -0.06388263        4.75825688
 C            0.76460859       -1.25676929        4.49669258
 C            1.44225218       -2.03182707        3.46990102
 C            2.70217225       -0.09403986        3.88250756
 C            2.64310289       -1.31120310        3.08925087
 C            2.76133611        1.17624199        3.18437558
 C            0.73863041        1.07982033        4.37428869
 C            1.47738909        1.83357928        3.37478887
 C           -0.60407184       -0.84333221        4.25117906
 C           -0.58738795        0.59449945        4.02928870
 C           -1.37234801       -1.63194193        3.41054153
 C            0.67334373       -2.63052818        2.47794741
 C           -0.71181821       -2.67822472        2.64769714
 C            1.21247876       -2.79758763        1.20000024
 C            2.98847933       -1.24125522        1.74408819
 C            2.37192039       -2.10181517        0.83247270
 C            3.32817408        1.18882710        1.92050837
 C            3.61287174       -0.08300066        1.27680879
 C            2.75453818        2.04784682        0.90029262
 C            0.78486092        2.31196708        2.26498949
 C            1.46930087        2.55131734        1.06808672
 C           -1.20639097        1.11693917        2.89616609
 C           -0.60525880        2.19396007        2.24388420
 C           -2.30919241       -0.99088716        2.50545961
 C           -2.17535724        0.36409321        2.22339230
 C           -1.56751245       -2.98130066        1.51425351
 C           -2.54808388       -1.91099481        1.40839582
 C            0.45446922       -3.45474672        0.23074418
 C           -0.99214760       -3.47951738        0.35812448
 C            0.77030710       -3.29579239       -1.17875166
 C            2.77111914       -2.06452385       -0.50362105
 C            1.91206416       -2.61063674       -1.54068175
 C            3.68592453        0.17126946       -0.15105062
 C            3.12260392        1.49196853       -0.38918222
 C            3.38099382       -0.85520430       -1.02813367
 C            2.26614248        1.68465218       -1.46799146
 C            0.75020137        2.94789214       -0.06044868
 C            1.20723321        2.59007841       -1.33427081
 C           -1.31067307        2.84004322        1.24170267
 C           -0.57073422        3.35389707        0.10731279
 C           -2.72554600        0.86204401        1.04132961
 C           -2.49853194        2.19696694        0.71840639
 C           -2.85844487       -1.39058930        0.15645693
 C           -3.15329971       -0.02667654        0.04798530
 C           -1.55299502       -3.09985730       -0.92545824
 C           -0.46864852       -3.03796886       -1.89117610
 C           -2.55356310       -2.13618456       -0.98947206
 C           -0.52296883       -2.07053812       -2.89553606
 C            1.84850776       -1.64745053       -2.62569836
 C            2.71899468       -0.53624915       -2.27965849
 C            2.26884635        0.75772866       -2.51814775
 C            0.63764535       -1.37401257       -3.26339925
 C            1.39934427        0.93681427       -3.58742286
 C            0.54071373       -0.17466884       -3.97158497
 C            0.45918043        2.93697031       -2.45590054
 C            0.61852097        2.15358404       -3.66258401
 C           -1.47552239        3.38090241       -1.02969723
 C           -2.68014276        2.65797133       -0.64783527
 C           -0.95507925        3.23431221       -2.30683609
 C           -3.64894097        0.47169246       -1.15365925
 C           -3.30625200        1.82335058       -1.56152442
 C           -2.84374582       -1.60946008       -2.24239586
 C           -1.78008812       -1.56738425       -3.23592532
 C           -3.58784119       -0.37064787       -2.32920164
 C           -0.75681076        0.36637967       -4.33449004
 C           -0.70431764        1.80948209       -4.15673102
 C           -1.68319666        2.46121946       -3.30178384
 C           -2.83398244        1.77062811       -2.93699084
 C           -1.90300898       -0.32145529       -3.97115975
 C           -3.03104411        0.41321555       -3.41917577
