   70
C70 / DATE: 7/ 1/2024 / Origin: Program Fullerene / C70 from database
 C            1.10090839        0.05130353        4.42920256
 C            2.37488315       -0.17864243        3.78880086
 C            2.36004849       -1.54487861        3.29871450
 C            0.27826574       -1.12878849        4.20240380
 C            0.98414173       -1.98309426        3.27577979
 C           -1.04026848       -0.67462938        3.83824757
 C            0.32245937        1.20216831        4.02116394
 C           -1.06183248        0.77743214        3.92762209
 C            0.81238028        2.06594590        3.04943984
 C            2.75660577        0.67242885        2.67596260
 C            1.88763365        1.66425636        2.23946063
 C            3.07550762       -1.55556483        2.05099499
 C            3.38875939       -0.18199999        1.68911538
 C            2.61635016       -2.36979980        1.03419369
 C            0.40379542       -2.28456810        2.04173734
 C            1.23466151       -2.63789589        0.96709457
 C           -1.69313475       -1.26830974        2.77196566
 C           -0.94535178       -1.97116287        1.80486988
 C           -2.88550871       -0.66623968        2.40690582
 C           -1.93243782        1.48664148        3.09488479
 C           -2.96744856        0.78536478        2.47212730
 C           -0.07480062        3.01998185        2.57205360
 C           -1.49352727        2.68785501        2.52899121
 C            0.25232718        3.74359927        1.36256072
 C            1.94672142        2.05683997        0.90005058
 C            1.27709579        3.19932638        0.49603003
 C            3.32573783        0.15397583        0.33389702
 C            2.46524243        1.18709386       -0.06481639
 C            3.31143096       -2.22988967       -0.15190677
 C            3.61690296       -0.86903294       -0.56708610
 C            2.85646528       -2.96103446       -1.30393668
 C            0.65425933       -2.96413519       -0.26607927
 C            1.47570272       -3.38365612       -1.31175614
 C           -1.50282722       -2.25336597        0.54727283
 C           -0.67041928       -2.59112335       -0.52171142
 C           -3.56075622       -1.10130041        1.21234626
 C           -2.82750205       -1.92217731        0.27651504
 C           -3.46829618        1.23998407        1.18483556
 C           -4.00934806        0.08793973        0.50397730
 C           -1.99500449        3.09210563        1.22270633
 C           -0.96668830        3.87675537        0.58292886
 C           -2.73817598        2.18564770        0.47353126
 C            0.78042896        3.27382612       -0.86003028
 C           -0.64038306        3.57965658       -0.78698486
 C            2.00677848        1.26483221       -1.39402360
 C            1.19782937        2.33532886       -1.79904166
 C            3.20930152       -0.74623017       -1.95030641
 C            3.05174486       -2.09951040       -2.45421259
 C            2.27412885        0.22373997       -2.29312550
 C            1.02033993       -3.24460429       -2.67674067
 C            1.96683772       -2.37399809       -3.36607394
 C           -1.13989212       -2.44146511       -1.84040858
 C           -0.30360729       -2.71316541       -2.91633550
 C           -3.16745278       -1.44281187       -1.04601972
 C           -3.69021454       -0.09526597       -0.88763977
 C           -2.28225866       -1.67803215       -2.08620155
 C           -2.45608523        1.98762173       -0.89649981
 C           -1.50902349        2.80961791       -1.54640106
 C           -3.08240142        0.93279735       -1.59718756
 C            0.39715889        2.18593979       -2.92679910
 C           -1.02899291        2.44916162       -2.79745707
 C            1.46061181        0.03391386       -3.41866423
 C            1.20611039       -1.25774456       -3.88250145
 C           -0.16955296       -1.71032909       -3.95621043
 C            0.56203817        1.02812828       -3.78068862
 C           -2.27736739       -0.77112782       -3.14702717
 C           -2.66706361        0.60654341       -2.88356329
 C           -1.74053655        1.46815807       -3.57304512
 C           -1.16420489       -0.75318222       -4.08401439
 C           -0.75923035        0.63284485       -4.24388751
