   70
C70 / DATE: 7/ 1/2024 / Origin: Program Fullerene / C70 from database
 C            1.29002746        0.03252235        4.16637338
 C            2.41141263       -0.08007532        3.25319151
 C            2.27744548       -1.34271534        2.53734142
 C            0.42707462       -1.11659393        3.95331553
 C            0.99259382       -1.91276461        2.88235369
 C           -0.93279578       -0.63782010        3.80329460
 C            0.47049968        1.22622453        4.12557083
 C           -0.90642254        0.81751218        3.87053307
 C            0.97540193        2.35905921        3.50751478
 C            2.86167663        1.04519281        2.56229918
 C            2.18242931        2.26182484        2.69383189
 C            3.64675162        0.84273075        1.42945074
 C            2.73244164       -1.41459124        1.22591481
 C            3.69952653       -0.48903754        0.85113803
 C            1.93199099       -2.02165265        0.24235442
 C            0.15374309       -2.33569546        1.86548982
 C            0.67185288       -2.54167848        0.58641843
 C           -1.75567529       -1.24639676        2.86400624
 C           -1.22691079       -2.24984823        2.04505572
 C           -2.86168086       -0.53149944        2.42329772
 C           -1.72405246        1.55942090        3.01014052
 C           -2.77564177        0.91632006        2.36201309
 C            0.05545753        3.25210787        2.83295352
 C           -1.26784449        2.76679436        2.48518340
 C            1.99261439        3.09907533        1.51668350
 C            0.69292565        3.72088051        1.61395653
 C            3.52867625        1.77202091        0.31874802
 C            2.43681961        2.62712520        0.28722881
 C            4.04456688       -0.34040984       -0.54364383
 C            3.92217646        1.07010649       -0.88057630
 C            2.34706870       -2.01493714       -1.09937601
 C            3.29150240       -1.08897526       -1.52182110
 C            1.51234030       -2.53328635       -2.07829271
 C           -0.12841980       -3.16614730       -0.37384921
 C            0.28150839       -3.19201345       -1.70161528
 C           -2.05482815       -2.88148832        1.12509330
 C           -1.46100647       -3.44497550       -0.07511968
 C           -3.57971998       -0.98064406        1.24616625
 C           -3.30631501       -2.24372290        0.74501702
 C           -3.11482541        1.31023234        1.00232201
 C           -3.64635075        0.14429590        0.32207239
 C           -1.48957937        3.05470292        1.07481816
 C           -0.23469943        3.53190420        0.52500036
 C           -2.27289366        2.18063481        0.32084272
 C            1.55650395        2.58955065       -0.81127263
 C            0.21351602        2.96805084       -0.65594112
 C            3.07666617        1.16925373       -2.04861579
 C            2.93223260       -0.17181533       -2.58972202
 C            1.96360199        2.00276644       -2.02455467
 C            1.25158330       -1.73417144       -3.26852453
 C            1.81669015       -0.45976146       -3.37064674
 C           -0.68823216       -2.96212941       -2.76444257
 C           -0.12624202       -1.97709385       -3.67480487
 C           -2.45471818       -3.36410037       -1.13125258
 C           -3.50820827       -2.47701977       -0.67190338
 C           -2.03901734       -2.91203334       -2.44708354
 C           -3.35456431       -0.05706118       -1.02284454
 C           -3.52860201       -1.33224342       -1.56206417
 C           -2.80515953       -1.71320651       -2.76268857
 C           -1.90569865        1.88931987       -0.99996476
 C           -0.73786765        2.45964595       -1.52336827
 C           -2.58062461        0.88246707       -1.70819181
 C            1.03859237        1.84991603       -3.05743550
 C            1.04305874        0.60930120       -3.82105955
 C           -0.34738708        2.20133744       -2.82326907
 C           -0.91446913       -0.92349370       -4.11877567
 C           -2.23160169       -0.71544902       -3.53696980
 C           -2.27682058        0.65121853       -3.04854393
 C           -0.30963704        0.38132151       -4.29850122
 C           -1.17445791        1.36171028       -3.66025000
