   70
C70 / DATE: 7/ 1/2024 / Origin: Program Fullerene / C70 from database
 C            1.33409680       -0.17089011        4.24358775
 C            2.61483659       -0.53679211        3.68972753
 C            2.55314736       -1.93419043        3.29108244
 C            0.49237493       -1.35802786        4.25213517
 C            1.24938380       -2.45217141        3.66861591
 C           -0.79270049       -0.99920578        3.66884722
 C            0.58597790        0.89635349        3.60760264
 C           -0.77905274        0.43074363        3.44686995
 C            1.15824682        1.65222239        2.57812577
 C            3.11005102        0.21612399        2.55849308
 C            2.47252593        1.38837948        2.15621323
 C            2.96728857       -2.01927683        1.89727793
 C            3.51785961       -0.73005072        1.53312492
 C            2.15407327       -2.69144352        0.99233914
 C            0.60077589       -3.30663127        2.79037028
 C            1.21383985       -3.58407009        1.50116539
 C           -1.36186094       -1.82934845        2.70663826
 C           -0.81227264       -3.09919586        2.52540430
 C           -2.19008051       -1.27184989        1.71692849
 C           -1.51284781        0.95207319        2.40047925
 C           -2.35313912        0.12376829        1.65615154
 C            0.29562831        2.39086538        1.75500030
 C           -1.08102237        2.14178856        1.83854149
 C            0.81471930        3.15622700        0.70241039
 C            2.92375120        1.94534486        0.96635026
 C            2.10122815        2.90196648        0.25788574
 C            3.46628094       -0.31458740        0.20925348
 C            3.51755147        1.05769372       -0.01994483
 C            2.01313196       -2.18117096       -0.30624254
 C            2.84660804       -1.13789932       -0.73552074
 C            0.96814165       -2.61263324       -1.13772379
 C            0.16338116       -4.08225462        0.64157896
 C           -1.10323678       -3.83497170        1.31582532
 C            0.05265491       -3.54954319       -0.69744082
 C           -2.68688628       -2.08398610        0.68503285
 C           -1.99715753       -3.24199481        0.35202212
 C           -1.34960641       -3.29671915       -0.94848296
 C           -3.41493131       -1.50493506       -0.34407143
 C           -3.15506324        0.70438330        0.66525458
 C           -3.78909489       -0.11079752       -0.26297481
 C           -1.97388930        2.82947189        1.03634504
 C           -3.03908206        2.07443388        0.40084648
 C           -0.04563098        3.80497925       -0.17637760
 C           -1.46738522        3.78841044        0.08311889
 C            0.14993808        3.62682155       -1.60831619
 C            2.32984661        2.72497378       -1.16935524
 C            3.22000345        1.58279591       -1.33804238
 C            1.27463921        2.94050532       -2.05887018
 C            2.76906523       -0.70844774       -2.06203772
 C            3.00494930        0.69311398       -2.37625854
 C            0.64136120       -1.87045879       -2.26294826
 C            1.65605423       -1.15670713       -2.87841926
 C           -1.71365542       -2.33265921       -1.88675006
 C           -2.96548985       -1.75312679       -1.70537308
 C           -0.70931667       -1.60394289       -2.55274900
 C           -3.95600418        0.36144725       -1.62750278
 C           -3.34857489       -0.62000297       -2.51074796
 C           -3.17464573        2.56770320       -0.96504196
 C           -2.15368601        3.57205376       -1.17876671
 C           -1.14867876        3.34150323       -2.20109475
 C           -3.43248150        1.66544843       -1.98270606
 C           -1.05786796       -0.51350117       -3.37489864
 C           -2.32660658        0.04668597       -3.28130463
 C           -1.28372341        2.26087159       -3.07235804
 C           -2.44068617        1.47614972       -3.03628270
 C            1.17166890        2.17094127       -3.21617832
 C            2.09695068        1.07326427       -3.43918544
 C            1.31910189       -0.09938093       -3.80073989
 C           -0.13995404        1.73378542       -3.66945944
 C           -0.06482237        0.29957113       -3.90647930
