   70
C70 / DATE: 7/ 1/2024 / Origin: Program Fullerene / C70 from database
 C            1.33974941       -0.03824717        4.30625734
 C            2.54853635       -0.16761471        3.50790953
 C            2.45306638       -1.40798173        2.75849071
 C            0.50647853       -1.20196968        4.04784438
 C            1.15099441       -1.99733708        3.03370187
 C           -0.83571891       -0.74370568        3.79472616
 C            0.50960540        1.14813679        4.16330830
 C           -0.84838988        0.70430944        3.91471533
 C            0.99906581        2.24134562        3.46533627
 C            3.07849527        0.95485666        2.89395649
 C            2.37574597        2.22464008        3.00089701
 C            3.59312504        0.84491897        1.54197665
 C            2.95769036       -1.49494770        1.46210480
 C            3.56028154       -0.37608261        0.86526955
 C            2.47203010       -2.53298089        0.66732081
 C            0.40472718       -2.49034262        1.96700258
 C            1.12652006       -3.03185374        0.91394914
 C           -1.57316090       -1.31325705        2.76188304
 C           -0.90483941       -2.02207923        1.74664000
 C           -2.77019184       -0.67738270        2.46508758
 C           -1.66767563        1.41228168        3.04245527
 C           -2.83577193        0.76568549        2.65594187
 C            0.18179051        2.83735749        2.41945563
 C           -1.08351831        2.32452715        2.15125809
 C            2.41293450        2.86969660        1.70040892
 C            3.22101420        2.05339914        0.81998385
 C            1.05207455        3.15756141        1.30125407
 C            2.84950273        1.93007489       -0.51296174
 C            3.75011330       -0.34029012       -0.51675301
 C            3.42345721        0.88487084       -1.22805201
 C            2.69278233       -2.53320625       -0.76544845
 C            3.34185528       -1.45750096       -1.34875763
 C            0.48874085       -3.24221358       -0.36407865
 C            1.50533163       -3.09250125       -1.39229269
 C           -1.50370026       -2.16716772        0.47647207
 C           -0.78292600       -2.73302654       -0.58531396
 C           -3.46619375       -0.99394520        1.24091220
 C           -2.82271395       -1.74153141        0.26295197
 C           -3.61106156        1.31809888        1.56807290
 C           -4.18297348        0.20287411        0.83975047
 C           -1.58432682        2.44199566        0.85004812
 C           -2.92141493        2.15522610        0.61340695
 C            0.65167201        2.80922334        0.01635043
 C            1.61450474        2.44472339       -0.92912897
 C           -0.69636882        2.53258058       -0.22536717
 C            1.21927939        2.28262349       -2.25197973
 C            2.90619429        0.52895331       -2.53599529
 C            2.86721817       -0.92326402       -2.61710924
 C            1.87444451        1.28161159       -3.07898996
 C            1.12126494       -2.65990435       -2.65285527
 C            1.82146228       -1.55051140       -3.28440371
 C           -1.22466517       -2.58176823       -1.90133351
 C           -0.29346876       -2.50446388       -2.93758525
 C           -3.32813334       -1.68149191       -1.03688264
 C           -2.52048505       -2.15168101       -2.14385069
 C           -4.18078235        0.55340096       -0.56309783
 C           -3.33655934        1.73602626       -0.71232234
 C           -4.02761112       -0.47678490       -1.47517497
 C           -1.13099777        2.27319298       -1.53062579
 C           -0.19906075        2.26071997       -2.56648310
 C           -2.42435542        1.79330776       -1.76463478
 C            0.85589738        0.63460477       -3.88965134
 C            0.83790971       -0.75183970       -4.00164081
 C           -0.42890327       -1.46106142       -3.94167468
 C           -0.38903477        1.35939800       -3.68982404
 C           -2.76195805       -1.26956201       -3.27358810
 C           -3.52480876       -0.13691248       -2.78878337
 C           -2.68363813        1.03747258       -2.90967599
 C           -1.61935925       -0.74967058       -4.00418345
 C           -1.60078867        0.69638553       -3.81660019
