   70
C70 / DATE: 7/ 1/2024 / Origin: Program Fullerene / C70 from database
 C            1.41345249       -0.13032421        5.21694255
 C            0.56072653       -1.30400081        5.21694255
 C            1.14439231       -2.27961837        4.31138099
 C            2.52168257       -0.38394095        4.31138099
 C            2.39649442       -1.74115512        3.81414174
 C            2.57235977        0.70765439        3.35089917
 C            0.64645820        0.97279013        4.66599202
 C            1.44127200        1.57832958        3.62142885
 C           -0.72541182       -0.91542696        4.66599202
 C           -0.67167341        0.48799930        4.30927121
 C            0.12188356       -2.66513675        3.35089917
 C           -1.05570309       -1.85846179        3.62142885
 C            0.48323712       -2.88236004        2.01760480
 C            2.73033584       -1.98370510        2.49207134
 C            1.82581706       -2.76894416        1.66420601
 C            2.89061578        0.43111243        2.01760480
 C            3.19763088       -0.88080441        1.66420601
 C            2.45237028        1.31834935        1.02396866
 C            0.78881308        2.11602885        2.52802719
 C            1.54493816        2.31537696        1.38696389
 C           -1.20192114        0.87324683        3.07887438
 C           -0.58621539        1.90457094        2.37075888
 C           -1.76870638       -1.40409469        2.52802719
 C           -1.99250512       -0.03102082        2.37075888
 C           -0.49600065       -2.73973509        1.02396866
 C           -1.72464220       -2.18481434        1.38696389
 C           -0.13053859       -2.77592433       -0.33057749
 C            2.17276470       -2.47538499        0.28960349
 C            3.02565224       -1.30148600        0.28960349
 C            1.20195742       -2.55821709       -0.69546861
 C            2.59972228        0.98195737       -0.33057749
 C            2.80443430       -0.35259688       -0.69546861
 C            2.21662097        1.90078360       -1.31655512
 C            0.99372392        3.12531418        0.41425212
 C            1.44950113        3.00480572       -0.95254712
 C           -1.18827569        2.36212073        1.19546839
 C           -0.45169657        3.23182456        0.38919683
 C           -2.61370770        0.40018189        1.19546839
 C           -2.24106874        1.62823175        0.63415361
 C           -2.66527284       -1.91086281        0.41425212
 C           -3.21322973       -0.56909975        0.38919683
 C           -1.12277908       -2.69550625       -1.31655512
 C           -2.40981958       -2.30709352       -0.95254712
 C           -0.74356469       -2.60478807       -2.65608935
 C            1.46986035       -1.93275741       -1.90964920
 C            2.29237336       -0.80066538       -1.90964920
 C            0.60568047       -2.17453379       -2.96758058
 C            2.24752654        1.51209582       -2.65608935
 C            2.25527009        0.09593154       -2.96758058
 C            1.37073943        2.17011473       -3.61185146
 C            0.35278616        3.44619496       -1.80309143
 C           -0.85039675        3.48096613       -0.98415121
 C            0.28766280        2.99574873       -3.11369508
 C           -2.77007823        2.01257964       -0.60096316
 C           -2.02641960        2.92182268       -1.45696419
 C           -3.57338257       -0.26690232       -0.98415121
 C           -3.16850925       -1.40045239       -1.80309143
 C           -3.40501659        1.02434671       -1.45696419
 C           -1.64031997       -1.97425300       -3.61185146
 C           -2.76023366       -1.19932085       -3.11369508
 C            0.54517961       -1.25318373       -4.08922081
 C            1.36031832       -0.13124155       -4.08922081
 C            0.80081004        1.15274146       -4.47871108
 C           -0.84885837       -1.11783231       -4.47871108
 C           -0.96204586        2.45784311       -3.63241153
 C           -2.09196505        2.41838600       -2.82079518
 C           -2.94647451        1.24225462       -2.82079518
 C           -2.63483623        0.15544469       -3.63241153
 C           -0.64311867        1.32688421       -4.49110896
 C           -1.46067647        0.20161243       -4.49110896
