   70
C70 / DATE: 7/ 1/2024 / Origin: Program Fullerene / C70 from database
 C            1.19440954       -0.21401588        4.36556685
 C            2.45382692       -0.53986896        3.73821999
 C            2.40849463       -1.93675820        3.33788952
 C            0.36249380       -1.40674727        4.34772861
 C            1.08624181       -2.44772969        3.64349746
 C           -0.95493435       -1.01840251        3.87446709
 C            0.41062401        0.87644463        3.81898192
 C           -0.96219197        0.42938339        3.72012213
 C            0.91672778        1.65812620        2.78834897
 C            2.87214380        0.23321817        2.58627130
 C            2.13962363        1.33779970        2.17937161
 C            2.89962032       -2.02127005        1.97326600
 C            3.32721233       -0.68936480        1.56788452
 C            2.24077236       -2.82538015        1.04727188
 C            0.41989620       -3.19731589        2.68550232
 C            1.06964015       -3.49009333        1.41442485
 C           -1.61113710       -1.80053192        2.92705855
 C           -0.98832059       -2.93850935        2.41369153
 C           -2.66923801       -1.23155113        2.22679110
 C           -1.77950857        0.99597287        2.74628080
 C           -2.80789999        0.21558615        2.22120243
 C            0.02543771        2.48256681        2.10293489
 C           -1.32424476        2.10904516        2.02768868
 C            0.55518457        3.39086344        1.18872957
 C            2.40314269        1.84907121        0.91547364
 C            1.84432256        3.07916665        0.60581097
 C            3.21161885       -0.32673700        0.22587382
 C            2.77077592        0.96227895       -0.10936333
 C            2.50522111       -2.61420459       -0.30103806
 C            3.09532170       -1.34815470       -0.70830340
 C            1.51735804       -2.98526615       -1.30236181
 C            0.02036932       -3.70516480        0.42900929
 C           -1.25172317       -3.35158705        1.04320536
 C            0.24532113       -3.38129100       -0.90453703
 C           -3.00368867       -1.71287566        0.89471885
 C           -2.21100314       -2.68387055        0.28816139
 C           -3.44731909        0.59584507        0.97339817
 C           -3.47491834       -0.57573138        0.11526577
 C           -2.14816215        2.66069906        1.04686020
 C           -3.16129322        1.83070244        0.42039938
 C           -0.28058839        3.95368272        0.14323736
 C           -1.58623905        3.51463612        0.01605612
 C            1.84743667        3.53798586       -0.76281403
 C            0.53380909        4.09544188       -1.04842132
 C            2.50595076        1.28136088       -1.45286571
 C            2.16149856        2.58501000       -1.80434076
 C            2.62613744       -1.04881370       -2.04426628
 C            1.67735993       -2.08185763       -2.43110273
 C            2.36740708        0.26568747       -2.40442358
 C            0.57664449       -1.72681869       -3.20464572
 C           -0.84615175       -3.09023242       -1.71565462
 C           -2.10844239       -2.70734257       -1.09990101
 C           -0.67027346       -2.28339040       -2.91488499
 C           -3.11192385       -0.46905549       -1.22470217
 C           -2.66647566       -1.61379820       -1.87894483
 C           -1.88619718       -1.49928011       -3.09595649
 C           -2.99180246        1.93936595       -1.01755076
 C           -2.06671096        3.03266064       -1.27323751
 C           -2.92136262        0.79173437       -1.80432869
 C            0.07220793        3.51080850       -2.29446457
 C            1.20485568        2.80140215       -2.87367248
 C           -1.20618242        2.95310624       -2.36865684
 C            1.58908006        0.48080829       -3.54086817
 C            0.64978850       -0.55230856       -3.95096075
 C            0.96669324        1.77465375       -3.77132282
 C           -1.81997463       -0.27571569       -3.73896356
 C           -2.36029935        0.90002097       -3.07566055
 C           -1.48433462        2.02563718       -3.37026897
 C           -0.57379772        0.10432406       -4.37209689
 C           -0.39833067        1.53593850       -4.20008244
