   70
C70 / DATE: 7/ 1/2024 / Origin: Program Fullerene / C70 from database
 C            1.08672038       -0.11387252        4.94909840
 C            2.31966367       -0.35498212        4.22302277
 C            2.18642596       -1.63090823        3.53904246
 C            0.23295429       -1.27557701        4.75957599
 C            0.82477123       -2.09293410        3.71391222
 C           -1.12092662       -0.80008864        4.58030422
 C            0.29947617        1.06897100        4.63976540
 C           -1.08396838        0.65236468        4.49996917
 C            0.80101461        2.02119744        3.76053499
 C            2.76922962        0.62293684        3.24768068
 C            2.11095873        1.83947930        3.14482606
 C            2.68294569       -1.46148650        2.19107726
 C            3.12445460       -0.08882237        2.02982720
 C            1.99244263       -2.03752555        1.14093961
 C            0.07480548       -2.41587374        2.58055971
 C            0.73354740       -2.61160192        1.35714220
 C           -1.86526087       -1.27338789        3.43403025
 C           -1.31502149       -2.24139888        2.59873790
 C           -1.83017217        1.05170025        3.31328495
 C           -2.50604220       -0.12639662        2.81448084
 C           -0.07919505        2.58877872        2.74974627
 C           -1.25257709        1.92720821        2.40309663
 C            2.07722051        2.50392380        1.85644097
 C            0.76727324        3.11514071        1.69920457
 C            2.94141235        0.52850678        0.78809631
 C            2.65716438        1.89824055        0.74475963
 C            2.31674184       -1.61420064       -0.13643060
 C            2.66474825       -0.27425085       -0.33151040
 C            1.85061720       -2.37149992       -1.19352085
 C            0.02075993       -3.10489597        0.25796623
 C            0.64060878       -3.14694020       -0.99050526
 C           -2.03677535       -2.52925485        1.44922011
 C           -1.36540729       -3.12588239        0.31148967
 C           -2.81263542       -0.21632100        1.46239075
 C           -2.91910033       -1.49451605        0.93357581
 C           -1.61865258        1.85929404        1.05792547
 C           -2.45667633        0.82797681        0.60353978
 C            0.26099241        3.23435715        0.41208501
 C           -1.01230743        2.72503667        0.14176244
 C            2.40451355        2.49142648       -0.48506808
 C            1.19412481        3.28662855       -0.61792426
 C            2.51505833        0.31506747       -1.59312407
 C            2.52298370        1.70171567       -1.69152556
 C            1.80519087       -1.79682785       -2.51979336
 C            2.07898012       -0.44378663       -2.68560967
 C           -0.15936264       -3.03817931       -2.20462598
 C            0.67781840       -2.40008840       -3.21381666
 C           -2.13416660       -2.76512039       -0.86970326
 C           -3.00363882       -1.66030320       -0.49878999
 C           -1.51733385       -2.72699999       -2.11561859
 C           -2.73442394        0.71349133       -0.76488237
 C           -3.03581070       -0.53970858       -1.31704303
 C           -1.51304445        2.79963783       -1.15423746
 C           -2.45863443        1.79363275       -1.59900311
 C            0.75261964        3.20009081       -1.99684201
 C            1.70287248        2.35017151       -2.69946095
 C           -0.60514012        3.07751656       -2.25750323
 C            1.63833192        0.19899096       -3.84298103
 C            1.27930522        1.60400069       -3.78694681
 C            0.08838787       -1.72113515       -4.27097647
 C            0.66414368       -0.45834488       -4.69900339
 C           -2.10504834       -1.93154505       -3.09785453
 C           -2.86192357       -0.76073843       -2.68080764
 C           -1.35369528       -1.57706795       -4.28744575
 C           -2.24823386        1.58235030       -3.02155226
 C           -1.04630063        2.31021355       -3.41005653
 C           -0.09883096        1.71326602       -4.23796825
 C           -0.42451658        0.47975797       -4.93176253
 C           -2.51825945        0.33532888       -3.56612874
 C           -1.66819713       -0.19593653       -4.61908923
