   70
C70 / DATE: 7/ 1/2024 / Origin: Program Fullerene / C70 from database
 C            1.46088412       -0.06347426        4.89792387
 C            0.66681798       -1.26885240        4.77657785
 C            1.37009963       -2.17979391        3.88738231
 C            2.58446509       -0.18643999        3.98536186
 C            2.43605389       -1.42356865        3.25085460
 C            2.65192756        1.03806013        3.22162284
 C            0.64344857        1.04535575        4.43460188
 C            1.42673999        1.78501958        3.47625417
 C           -0.68784096       -0.87180503        4.43078702
 C           -0.62845724        0.51532435        3.99759823
 C           -1.45589377       -1.76221360        3.69797860
 C            0.61380011       -3.04753275        3.11595098
 C           -0.83334954       -2.99721178        3.24596946
 C            0.91497715       -3.17809786        1.69876161
 C            2.51279277       -1.37125748        1.86036107
 C            1.78593151       -2.28415621        1.08651470
 C            3.09646591        0.98417519        1.90468959
 C            3.10143736       -0.25703481        1.24804092
 C            2.87132271        2.13238907        1.15469281
 C            0.79138926        2.35695752        2.38028997
 C            1.63843230        2.85882651        1.40505717
 C           -1.09867943        0.85562871        2.72903600
 C           -0.46730427        1.87001260        1.98723765
 C           -2.25679497       -1.25742827        2.59466179
 C           -2.04749719        0.03414766        2.11403806
 C           -1.40411469       -3.33477871        1.95730118
 C           -0.31617372       -3.52395465        1.01452410
 C           -2.40622406       -2.33495688        1.63523497
 C           -0.51517927       -3.06537366       -0.28156180
 C            1.71058174       -2.11444017       -0.29635522
 C            0.54899648       -2.48832893       -0.98278640
 C            3.34551884       -0.30813491       -0.12372648
 C            2.64638338       -1.30193396       -0.91967612
 C            3.10091223        2.12375923       -0.27560840
 C            3.39691742        0.92101345       -0.89856912
 C            1.09849012        3.26149880        0.12988536
 C            2.12373696        3.02249851       -0.86864638
 C           -0.98729615        2.21346979        0.72982261
 C           -0.22012300        2.95926902       -0.17670023
 C           -2.48990398        0.34525887        0.83037736
 C           -2.14869669        1.57866967        0.28655757
 C           -2.56056122       -1.99524201        0.30002420
 C           -1.80959138       -2.69783786       -0.63504166
 C           -2.91828858       -0.68686369       -0.01370940
 C           -2.06740156       -2.45590402       -1.97108063
 C            0.30916038       -2.00976266       -2.27816677
 C           -0.92954443       -2.28554459       -2.85273095
 C            2.33638417       -0.71574908       -2.21098245
 C            2.85261365        0.64259221       -2.21770811
 C            1.10774258       -0.98653944       -2.80576407
 C            1.72411820        2.82979402       -2.18065625
 C            2.14305231        1.62774123       -2.89019651
 C           -0.63119154        3.07271222       -1.50542270
 C            0.32968904        3.06333489       -2.51950813
 C           -2.71728141        1.95336720       -0.92412294
 C           -1.95388460        2.79623338       -1.82352951
 C           -3.23552658       -0.40076103       -1.34271056
 C           -2.99807774       -1.39310745       -2.29908909
 C           -3.36868453        0.93364818       -1.72534740
 C           -1.38644670       -1.50705664       -3.98642203
 C           -2.73500911       -1.04643498       -3.68420308
 C            0.58639510       -0.08046424       -3.74189994
 C            1.04519273        1.23469690       -3.75572121
 C            0.07718303        2.31927006       -3.73974338
 C           -0.61210865       -0.35698287       -4.39190939
 C           -2.29771682        2.42385358       -3.18765447
 C           -3.24334253        1.32254942       -3.12178709
 C           -2.84090863        0.33456317       -4.10102195
 C           -1.23386876        2.05059298       -4.10495350
 C           -1.54709053        0.73273559       -4.63125904
