   70
C70 / DATE: 7/ 1/2024 / Origin: Program Fullerene / C70 from database
 C            1.57358154        0.06214318        4.73844361
 C            0.80011679       -1.16338985        4.69896448
 C            1.37802943       -2.03159035        3.68607807
 C            2.66035137       -0.07464840        3.78652873
 C            2.61745524       -1.41723658        3.23830126
 C            2.58813376        1.04375425        2.86533037
 C            0.71001363        1.13349050        4.27193249
 C            1.34065895        1.74236331        3.12207214
 C           -0.59443964       -0.79255076        4.55871928
 C           -0.62369945        0.59364467        4.11275374
 C           -1.43151142       -1.69427434        3.92309858
 C            0.51739098       -2.63201077        2.76462152
 C           -0.82360469       -2.74960959        3.12377372
 C            0.89060438       -2.71365269        1.41291881
 C            3.01276320       -1.59184171        1.92335822
 C            2.20014321       -2.41886929        1.05098540
 C            2.95846460        0.83999864        1.53965233
 C            3.39783783       -0.42299363        1.14711787
 C            2.41537712        1.67291792        0.56595410
 C            0.55978884        2.09419906        2.02987668
 C            1.20538835        2.32340788        0.82390303
 C           -1.35156283        0.91554820        2.96757344
 C           -0.80355541        1.78511568        2.00764187
 C           -2.53081949       -1.17500875        3.13487206
 C           -2.45525592        0.12522855        2.63884036
 C           -1.79505959       -3.15044689        2.12974099
 C           -2.92733054       -2.24381256        2.23851381
 C           -0.07193243       -2.88067955        0.40624683
 C           -1.39097613       -3.17694312        0.74293947
 C            0.20048630       -2.47380811       -0.90664876
 C            2.48706371       -2.00767001       -0.31121071
 C            3.28687761       -0.79856365       -0.25226240
 C            1.49214912       -2.07811951       -1.27558117
 C            2.80399393        1.48985221       -0.75625276
 C            3.03661520        0.18557735       -1.20002304
 C            2.40486250        2.45081726       -1.67693726
 C            0.47765533        2.85327159       -0.23565257
 C            1.15951306        3.15001911       -1.41579197
 C           -1.54667362        2.11605675        0.86814337
 C           -0.91252517        2.69972119       -0.23829232
 C           -3.23124801        0.46682323        1.53796220
 C           -2.83000264        1.59442360        0.72014651
 C           -3.34970915       -1.89620396        0.89611221
 C           -2.45999985       -2.57214142       -0.03252621
 C           -3.69822581       -0.58147494        0.63631406
 C           -0.87290104       -2.23202029       -1.77220417
 C           -2.12218387       -1.95402464       -1.22991875
 C           -0.62841979       -1.83776147       -3.07900111
 C            1.66952672       -1.34859597       -2.45211877
 C            2.49530273       -0.21322851       -2.42249887
 C            0.72853323       -1.51512851       -3.46182124
 C            2.44524498        2.12320145       -3.08933402
 C            2.46313689        0.72281117       -3.45433503
 C            0.43753010        3.26092244       -2.67092552
 C            1.28706858        2.73070318       -3.72283045
 C           -1.62889002        2.85791103       -1.42662030
 C           -0.92387389        3.00071803       -2.68870459
 C           -3.35482853        1.35082678       -0.61161545
 C           -3.55316271       -0.08000858       -0.71628564
 C           -2.79514993       -0.79678482       -1.64034493
 C           -2.77570589        2.00665892       -1.68042502
 C           -1.49059144       -0.82014603       -3.65043835
 C           -1.47456367        2.01263820       -3.61267709
 C           -2.36946368       -0.14812269       -2.80326382
 C           -2.47045037        1.24475691       -2.87998816
 C            0.65750964       -0.57834867       -4.56527973
 C            1.54981367        0.55709235       -4.56737460
 C            0.73942363        1.76299871       -4.65530528
 C           -0.70711723       -0.07693547       -4.62401914
 C           -0.65297228        1.36903277       -4.53092244
