   70
C70 / DATE: 7/ 1/2024 / Origin: Program Fullerene / C70 from database
 C            1.72510000       -0.05856398        4.52390737
 C            0.88116349       -1.22586499        4.37107335
 C            1.39577464       -2.01050702        3.26197371
 C            2.67871425       -0.06143025        3.42816139
 C            2.42087624       -1.22062343        2.60351990
 C            2.62036051        1.23519697        2.80054364
 C            0.88098363        1.11364573        4.36725847
 C            1.51218096        1.97483756        3.39224410
 C           -0.49633505       -0.77470069        4.30599456
 C           -0.46641779        0.66386824        4.09278823
 C           -1.38231652       -1.53754209        3.56450570
 C            0.48609117       -2.69247458        2.46598557
 C           -0.86051506       -2.67723569        2.83184644
 C            0.80744487       -2.91528263        1.12839093
 C            2.35262811       -1.06311710        1.22125161
 C            1.66565357       -2.02238450        0.47455972
 C            2.79070619        1.32673440        1.42487468
 C            2.67449303        0.17016450        0.63354935
 C            2.46513860        2.55058738        0.86198869
 C            0.71022678        2.72427237        2.53540659
 C            1.35460709        3.28674348        1.43855085
 C           -1.12921538        1.21217843        2.99660986
 C           -0.65097339        2.40007614        2.42776690
 C           -2.30743897       -0.86911266        2.66657843
 C           -2.07969866        0.45143918        2.30712456
 C           -1.86091242       -3.01808629        1.83899862
 C           -2.67039207       -1.82178828        1.63063163
 C           -0.04569083       -3.71710987        0.38198604
 C           -1.45883075       -3.74328165        0.73109808
 C            0.05791839       -3.71934978       -1.06141468
 C            1.67930723       -1.94212728       -0.92077206
 C            0.96613717       -2.87647469       -1.68966623
 C            2.61090204        0.28902261       -0.76164803
 C            2.29569296       -0.84049028       -1.52944635
 C            2.38556138        2.67130672       -0.57110304
 C            2.62623049        1.56074420       -1.35827110
 C            0.58201293        3.86241572        0.35383939
 C            1.24667888        3.51616536       -0.89659841
 C           -1.43342629        3.03110184        1.46050341
 C           -0.79895303        3.83895618        0.43067924
 C           -2.57035461        0.90805502        1.08852526
 C           -2.49287684        2.26852250        0.82527579
 C           -2.90374393       -1.36831571        0.32946878
 C           -2.78219466       -0.00253775        0.04263150
 C           -2.20805028       -3.56689222       -0.49435810
 C           -1.29185704       -3.78245548       -1.59468998
 C           -2.86995118       -2.29389940       -0.71483774
 C           -1.64776278       -2.85305331       -2.64900974
 C           -2.51997659       -1.84990577       -2.05445063
 C            0.74056586       -2.62091408       -3.03885070
 C           -0.63125737       -2.42295024       -3.48379402
 C            2.38613287       -0.77238968       -2.91835139
 C            1.55477502       -1.64137711       -3.71924512
 C            2.29883423        1.69101369       -2.69889732
 C            2.33809331        0.52581995       -3.55117026
 C            0.50763263        3.23289987       -2.04884145
 C            1.10877472        2.45708092       -3.03929583
 C           -1.56528850        3.69265803       -0.79071119
 C           -2.62925642        2.73603574       -0.53701799
 C           -0.88630451        3.28721474       -2.00971393
 C           -2.65867208        0.41118243       -1.29114257
 C           -2.25717721       -0.50032113       -2.26011753
 C           -2.61378445        1.75970106       -1.60477828
 C           -1.65735880        2.20155654       -2.60113113
 C           -0.68694229       -1.07150189       -3.99938782
 C            0.65006613       -0.79210952       -4.48140041
 C            1.14686632        0.55973708       -4.38601426
 C            0.27495965        1.58356330       -3.84369561
 C           -1.37168275       -0.09838842       -3.26922780
 C           -0.99367686        1.25006158       -3.37104167
