   70
C70 / DATE: 7/ 1/2024 / Origin: Program Fullerene / C70 from database
 C            1.32998355       -0.06938211        4.16659117
 C            2.58982622       -0.35362911        3.52554877
 C            2.53612774       -1.72164846        3.03119250
 C            0.49183956       -1.25471775        4.04667545
 C            1.16401538       -2.17228953        3.15474182
 C           -0.84205092       -0.80495926        3.70062378
 C            0.54596832        1.04985378        3.68904858
 C           -0.83791595        0.64130411        3.81963584
 C            0.93585649        1.75067344        2.54276207
 C            3.00728141        0.47981264        2.41816315
 C            2.15074887        1.46097959        1.90738584
 C            3.15198743       -1.73075521        1.71370074
 C            3.69332194       -0.40147885        1.49393266
 C            2.49700979       -2.37060902        0.66300444
 C            0.50828944       -2.59937576        2.00901659
 C            1.26792574       -2.99394616        0.91306704
 C           -1.50503146       -1.38204765        2.61993745
 C           -0.86132442       -2.36086154        1.84619249
 C           -2.62944772       -0.72811691        2.11309518
 C           -1.79281229        1.35871737        3.12533048
 C           -2.79247563        0.63552897        2.35515760
 C           -0.02051527        2.52539057        1.88152435
 C           -1.35242647        2.46718000        2.29995428
 C            0.28705056        3.14189049        0.66615972
 C            2.39190810        1.95209068        0.62190028
 C            1.50295547        2.85413160        0.03186729
 C            3.87140605        0.03247540        0.19421644
 C            3.37161776        1.34531989       -0.16833778
 C            2.86392773       -2.05490163       -0.65085292
 C            3.53955331       -0.86362608       -0.90303226
 C            2.18996199       -2.65056717       -1.71199613
 C            0.64648931       -3.72091798       -0.08943878
 C            1.18523017       -3.65340789       -1.43047228
 C           -1.52740361       -2.93569918        0.75717936
 C           -0.80233921       -3.67210290       -0.18520865
 C           -3.32462317       -1.29350817        1.05238862
 C           -2.80837437       -2.49775634        0.43193580
 C           -3.81757392       -0.42260279       -0.00625748
 C           -3.20306406        1.49895686        1.25824818
 C           -2.41434713        2.71864113        1.34396953
 C           -3.46367548        0.92248247        0.01769396
 C           -0.73033687        3.81934632       -0.01442275
 C           -2.10434073        3.40168667        0.18352650
 C           -0.60235760        4.10624264       -1.42739341
 C            1.71571874        3.22052526       -1.30140386
 C            0.64114641        3.79114952       -2.08568563
 C            3.22672958        1.34873175       -1.61156822
 C            3.10721687       -0.04123314       -2.02287931
 C            2.38918958        2.28773197       -2.18197364
 C            1.68506232       -1.80217393       -2.78320633
 C            2.00491111       -0.45103641       -2.77234175
 C            0.07987346       -3.44501273       -2.34817461
 C           -1.15162366       -3.58551396       -1.59961905
 C            0.31927257       -2.20202628       -3.05964583
 C           -3.21523897       -2.47502382       -0.96179810
 C           -3.72876963       -1.14917342       -1.25472199
 C           -2.23254130       -2.80429934       -1.97301939
 C           -0.68091227       -1.23390649       -3.08848301
 C           -2.92609586       -0.58332787       -2.31712870
 C           -1.99061749       -1.60139737       -2.76331857
 C           -2.94745312        1.52010675       -1.13854529
 C           -2.55575658        2.85652079       -1.08427685
 C           -1.66093207        3.37415154       -2.10726181
 C           -2.47266225        0.71921722       -2.18491295
 C            0.35144499        2.84697361       -3.15642442
 C            1.38599874        1.83205283       -3.12634005
 C            1.03006796        0.48530466       -3.12126575
 C           -0.32540211        0.12018649       -3.09901078
 C           -1.02569436        2.43347984       -3.00873034
 C           -1.31077872        1.08419536       -2.85621931
