   70
C70 / DATE: 7/ 1/2024 / Origin: Program Fullerene / C70 from database
 C            1.22320676       -0.10636396        4.20598905
 C            2.51244464       -0.40623358        3.62866411
 C            2.45316089       -1.75845973        3.09230088
 C            0.39163305       -1.29001774        4.06119172
 C            1.07190948       -2.19272651        3.16314248
 C           -0.93323293       -0.84486538        3.69900652
 C            0.46889106        1.01328042        3.67914389
 C           -0.91941868        0.60971846        3.64829965
 C            0.95862419        1.74365834        2.60711416
 C            3.01654521        0.44825092        2.57354410
 C            2.24205629        1.50301718        2.08884275
 C            3.10793323       -1.74218937        1.79461062
 C            3.68297816       -0.41930912        1.62313937
 C            2.47599980       -2.34428584        0.70913159
 C            0.44011662       -2.57536748        1.98585575
 C            1.22778773       -2.95042256        0.90146447
 C           -1.63366487       -1.52142735        2.70735634
 C           -0.92624443       -2.31678413        1.79065651
 C           -2.82701365       -0.93467354        2.31087458
 C           -1.79607509        1.23184846        2.76147475
 C           -2.93994358        0.51036602        2.43298427
 C            0.06528623        2.53276599        1.89105295
 C           -1.29947745        2.18856830        1.85423221
 C            0.58980922        3.45411118        0.99704063
 C            2.61642683        2.09631637        0.87911040
 C            1.86872065        3.15867073        0.38234015
 C            3.88819694        0.05198955        0.33706548
 C            3.43492162        1.39159468       -0.00322327
 C            2.89578543       -2.00785159       -0.58241291
 C            3.57538246       -0.81158850       -0.78991179
 C            2.29118848       -2.61030005       -1.67842389
 C            0.62531244       -3.63100811       -0.14367735
 C            1.24380739       -3.58414647       -1.45166184
 C           -1.52906103       -2.70541522        0.58334988
 C           -0.80905806       -3.49249432       -0.31792713
 C           -3.43754588       -1.31914963        1.05672109
 C           -2.71861401       -2.10179060        0.16473487
 C           -3.79941972        0.98039029        1.37484932
 C           -4.16296040       -0.16313591        0.55495524
 C           -2.13216440        2.68994588        0.83203001
 C           -3.30079676        2.01381636        0.50149787
 C           -0.26497635        4.03028463       -0.01295907
 C           -1.59530476        3.49443127       -0.16568280
 C            1.70195080        3.29203860       -1.05769152
 C            0.41439048        3.91844394       -1.29368757
 C            3.12494694        1.40595336       -1.42439999
 C            3.18730169        0.03421229       -1.90786797
 C            2.13210798        2.26052377       -1.88926405
 C            1.89569400       -1.77967127       -2.80744189
 C            2.23475477       -0.42755818       -2.81301703
 C            0.19983416       -3.35985394       -2.43493297
 C           -1.07343889       -3.37909835       -1.74480838
 C            0.55734935       -2.18495276       -3.20998591
 C           -2.99746917       -1.98543905       -1.19689377
 C           -2.06673830       -2.51578029       -2.17235914
 C           -4.00174695        0.21407613       -0.83823665
 C           -3.47502128        1.56821303       -0.87253129
 C           -3.50004629       -0.72559533       -1.72113672
 C           -1.75959299        3.07640491       -1.55004689
 C           -0.50160073        3.30849615       -2.23779846
 C           -2.51162596        1.93067351       -1.81511985
 C            1.34845180        1.86759919       -2.97453486
 C            1.37892431        0.48361846       -3.42586469
 C           -0.02160306        2.34665377       -3.10893377
 C           -0.40433755       -1.20977363       -3.46179808
 C           -1.73164431       -1.43215869       -3.09017000
 C           -2.58708189       -0.29850588       -2.76460106
 C           -2.04153432        0.98247257       -2.73525028
 C            0.01444459        0.08708729       -3.74329300
 C           -0.85982195        1.20890204       -3.43622181
