   70
C70 / DATE: 7/ 1/2024 / Origin: Program Fullerene / C70 from database
 C            1.40593528       -0.01387377        4.52545303
 C            2.64903683       -0.19544476        3.80207883
 C            2.58365195       -1.47716051        3.12308710
 C            0.55367942       -1.15611621        4.24412658
 C            1.27404319       -2.05164846        3.35668083
 C           -0.74152679       -0.65996630        3.81239451
 C            0.63454161        1.18903887        4.28161154
 C           -0.68555963        0.79062558        3.80642150
 C            1.25865359        2.27472441        3.68325507
 C            3.04487564        0.80799998        2.82651622
 C            2.44390165        2.05631828        2.85490385
 C            3.00129910       -1.27586357        1.75272911
 C            3.22046285        0.14439790        1.54493169
 C            2.35149677       -1.97331915        0.75114749
 C            0.58604297       -2.59226070        2.27577421
 C            1.25625220       -2.78612875        1.06513962
 C           -1.37349638       -1.30271561        2.75930658
 C           -0.79849971       -2.46832659        2.25149678
 C           -2.22790825       -0.56228445        1.94528161
 C           -1.28478505        1.49816389        2.76054511
 C           -1.98506665        0.80224979        1.76797662
 C            0.42461236        3.23592804        2.99293617
 C           -0.88515336        2.80810441        2.52940544
 C            2.23472757        2.75458057        1.60063946
 C            1.16519832        3.69463853        1.83321053
 C            2.73610728        0.73378384        0.37016427
 C            2.25019075        2.04584631        0.39624395
 C            2.45459352       -1.47702282       -0.53658950
 C            2.44657950       -0.09181892       -0.72326773
 C            2.07996197       -2.31649276       -1.56573948
 C            0.58420102       -3.43016133        0.01903697
 C            1.14369406       -3.38384063       -1.25846287
 C           -1.50180308       -3.19690748        1.30518841
 C           -0.77509120       -3.73122940        0.16486738
 C           -3.01616701       -1.24225376        1.02712563
 C           -2.75636716       -2.65456035        0.81831096
 C           -3.25796419       -0.63993458       -0.26901043
 C           -2.25552249        1.40410478        0.52559051
 C           -2.74920450        0.62324076       -0.52801155
 C           -1.07754947        3.38690048        1.21808386
 C            0.21347856        3.88732766        0.77242142
 C           -1.86917469        2.73009424        0.27854809
 C            1.53552638        2.54109778       -0.70413969
 C            0.58659248        3.56615661       -0.51839615
 C            1.89173982        0.45634493       -1.88627097
 C            1.54267468        1.81540616       -1.90450390
 C            1.72543845       -1.75354658       -2.84858233
 C            1.61072020       -0.37423601       -2.98636748
 C            0.29481928       -3.57204376       -2.41928136
 C            0.68885223       -2.59717275       -3.42173439
 C           -1.67057730       -3.68713580       -0.98723207
 C           -2.84249576       -2.92468502       -0.60439020
 C           -3.10779753       -1.66923455       -1.28254134
 C           -1.14106857       -3.48478332       -2.25160339
 C           -0.51479788       -1.96156691       -3.92438084
 C           -2.40692494       -1.36642752       -2.44624718
 C           -1.60540525       -2.34987809       -3.04016391
 C           -2.46514481        0.97444656       -1.84577074
 C           -2.23220951       -0.02683846       -2.80293700
 C           -1.73124849        3.15654996       -1.04503491
 C           -0.43468312        3.68434500       -1.44211608
 C           -2.18701587        2.30567934       -2.12610733
 C            0.90551968        2.35895209       -3.02084715
 C           -0.18103042        3.28315197       -2.80040449
 C           -1.39123758        2.64832196       -3.28843705
 C            0.79877296        0.08776615       -4.01766585
 C           -0.42462291       -0.63853324       -4.32103223
 C           -1.49805581        0.25695246       -3.95494958
 C            0.47520575        1.49207347       -4.09367664
 C           -0.97792450        1.59010012       -4.17673513
