   70
C70 / DATE: 7/ 1/2024 / Origin: Program Fullerene / C70 from database
 C            1.30509776        0.12676349        5.27354051
 C            0.50915624       -1.06721024        5.08493546
 C            1.33800433       -2.04435699        4.40268163
 C            2.53966928       -0.04417598        4.52136317
 C            2.54758993       -1.37296353        3.95585804
 C            2.64524721        1.07182776        3.61376349
 C            0.57635777        1.23752802        4.68084848
 C            1.49320255        1.93356383        3.82203865
 C           -0.74546749       -0.66890609        4.46746551
 C           -0.63432486        0.72854517        4.08038410
 C           -1.35308910       -1.53940416        3.58261458
 C            0.77681538       -2.73565196        3.26078697
 C           -0.59274313       -2.66795829        3.04837724
 C            2.62921260       -1.51361235        2.50831746
 C            1.66232988       -2.52230970        2.12416797
 C            3.04676539        0.86016383        2.29508532
 C            2.78364150       -0.38461122        1.69940648
 C            3.00945854        1.98948497        1.49303804
 C            1.00247369        2.56827082        2.69483191
 C            1.99112498        2.97524794        1.81962031
 C           -0.94942468        1.10975447        2.76904795
 C           -0.22218918        2.13211120        2.14333688
 C           -2.10458051       -0.97782673        2.47649805
 C           -1.79164280        0.29465036        2.00597221
 C           -1.08162631       -2.89796622        1.70678374
 C           -2.23876875       -2.04629756        1.52173717
 C            1.11133595       -2.46968267        0.84879621
 C           -0.17317974       -2.97817843        0.65318855
 C            2.35026210       -0.44895263        0.36125370
 C            1.62521582       -1.56098591       -0.08201971
 C            2.99202252        1.84025922        0.05630000
 C            2.54305464        0.64139770       -0.49326829
 C            1.59698913        3.62186650        0.60407428
 C            2.44281131        3.07843276       -0.44244418
 C           -0.55636559        2.50068608        0.82810228
 C            0.22832049        3.44679318        0.17743218
 C           -2.02630282        0.58419866        0.65469875
 C           -1.41612824        1.69391731        0.06456556
 C           -2.54740656       -1.72940618        0.21841762
 C           -2.63563286       -0.38605828       -0.15364330
 C           -0.70515406       -2.92599473       -0.62985044
 C           -2.05768150       -2.60279473       -0.73100529
 C            1.13466439       -1.60484930       -1.38893905
 C            0.13602580       -2.53820611       -1.67073797
 C            1.95822120        0.64718470       -1.77365227
 C            1.32585734       -0.51415113       -2.24799032
 C            1.63057550        3.00654020       -1.61946790
 C            0.28700625        3.43030789       -1.25943394
 C            1.72253663        1.87831982       -2.41500946
 C           -1.58328568        1.93218747       -1.31486780
 C           -0.73858559        2.84419540       -1.97570884
 C           -2.87937651       -0.12142306       -1.50643635
 C           -2.37546719        1.05483616       -2.08333520
 C           -2.61267212       -2.50580942       -1.98631403
 C           -3.19805608       -1.22231106       -2.31892397
 C           -0.35504392       -2.64691322       -2.96508891
 C           -1.77977226       -2.88081801       -3.10482593
 C            0.73544173       -0.52177079       -3.52144452
 C            0.01088153       -1.63851980       -3.93986780
 C            0.87072784        1.90456717       -3.50443592
 C           -0.40297964        2.57327189       -3.29215546
 C            0.57820307        0.68190343       -4.20294445
 C           -2.45170126        1.24134738       -3.47314959
 C           -1.37645856        1.93825678       -4.13159987
 C           -0.65736590        0.95326739       -4.92015359
 C           -3.16942753       -1.11876365       -3.76294138
 C           -2.26269245       -2.14746414       -4.25574470
 C           -1.12505449       -1.47083430       -4.84203386
 C           -2.76262049        0.12924119       -4.35134213
 C           -1.57403242       -0.13375156       -5.15855408
