   70
C70 / DATE: 7/ 1/2024 / Origin: Program Fullerene / C70 from database
 C            1.32136872       -0.05770837        4.31846495
 C            2.53412682       -0.19530027        3.52705521
 C            2.40409585       -1.40536010        2.73390399
 C            0.50362763       -1.23916086        4.09721728
 C            1.17201365       -2.07403021        3.12836945
 C           -0.84119361       -0.80584082        3.80313254
 C            0.48018965        1.11464762        4.13115771
 C           -0.84074807        0.64840755        3.75111260
 C            1.01139510        2.22609862        3.49456739
 C            3.08793083        0.93590557        2.94823734
 C            2.41952144        2.21363895        3.13703626
 C            3.53066248        0.87517956        1.56519995
 C            2.76685189       -1.40978242        1.38709092
 C            3.18081078       -0.22191387        0.77358827
 C            2.30533845       -2.46093762        0.60479569
 C            0.41923313       -2.70522015        2.14476021
 C            1.10619887       -3.16720225        1.02602086
 C           -1.58176567       -1.49045623        2.84653659
 C           -0.96559619       -2.48196872        2.06419613
 C           -2.70372661       -0.83279359        2.35163620
 C           -1.53377600        1.27337978        2.71630147
 C           -2.64936287        0.61412273        2.21937652
 C            0.27874381        2.82098336        2.38621862
 C           -0.86444325        2.19015943        1.89971257
 C            2.57337817        2.97901788        1.91586466
 C            3.42646004        2.21961102        1.02056956
 C            1.24960751        3.35757165        1.45003908
 C            3.22214564        2.36591616       -0.33957866
 C            3.09025121       -0.06931711       -0.61836745
 C            3.29099575        1.19008151       -1.18297680
 C            2.25265976       -2.31852432       -0.83490098
 C            2.61316383       -1.11269949       -1.41956726
 C            0.38183860       -3.57604845       -0.16226230
 C            1.06342589       -3.01006691       -1.31307400
 C           -1.69259243       -3.09383701        1.04023000
 C           -0.99967589       -3.59639547       -0.13551884
 C           -3.41783518       -1.36099023        1.20590931
 C           -2.94965178       -2.51331885        0.59354302
 C           -3.14558337        0.94679235        0.90175828
 C           -3.83541718       -0.22688634        0.39518476
 C           -1.16774197        2.27028165        0.53228249
 C           -2.34739228        1.69328063        0.04261708
 C            0.98455113        3.28348213        0.08967956
 C            2.05779487        3.11260018       -0.78589384
 C           -0.30048449        2.94652092       -0.33555196
 C            2.61611158        1.53426209       -2.42189551
 C            1.80619190        2.71748874       -2.16093123
 C            2.15814977       -0.85081960       -2.71173558
 C            2.10807026        0.51316389       -3.20915915
 C            0.33201012       -2.45386543       -2.36064232
 C            0.97850374       -1.54892949       -3.20063102
 C           -1.73452265       -3.16098304       -1.30891260
 C           -3.01271700       -2.63494394       -0.85451283
 C           -1.06576251       -2.54025229       -2.36585231
 C           -3.97293232       -0.37449706       -0.97587401
 C           -3.64261511       -1.64754482       -1.60185495
 C           -2.59253825        1.63462293       -1.33262264
 C           -3.47456077        0.67976419       -1.84073866
 C           -0.57736911        2.98251133       -1.69772678
 C            0.50737200        2.78116599       -2.64408153
 C           -1.74672271        2.29938341       -2.21220178
 C            0.83778986        0.69062896       -3.89594325
 C            0.20829437       -0.61677076       -4.00630246
 C            0.05935683        1.81179260       -3.62942454
 C           -1.37703606        1.66705947       -3.47209769
 C           -1.80574157       -1.80387495       -3.29053470
 C           -3.14296145       -1.36263992       -2.93562169
 C           -3.19393536        0.07652218       -3.13041277
 C           -1.17479524       -0.71926054       -4.02129908
 C           -1.98903497        0.47409644       -3.83466533
