   70
C70 / DATE: 7/ 1/2024 / Origin: Program Fullerene / C70 from database
 C            1.15073860        0.06467499        4.46284855
 C            2.46557050       -0.20478598        3.93214820
 C            2.47591818       -1.58167841        3.47030308
 C            0.33279643       -1.12108203        4.24794717
 C            1.09884409       -2.04392605        3.44644019
 C           -0.94703847       -0.68366925        3.74784653
 C            0.41153280        1.19667664        3.94312525
 C           -0.96819586        0.76860086        3.79294819
 C            0.96763910        2.01812721        2.96490521
 C            2.95651818        0.61892940        2.84765733
 C            2.22572565        1.72348847        2.40933799
 C            3.23927703       -1.63208681        2.23656763
 C            3.55585174       -0.26382401        1.85699885
 C            2.82162925       -2.51061133        1.25339839
 C            0.57547279       -2.51489507        2.24325367
 C            1.47382031       -3.05672911        1.33335088
 C           -1.50382205       -1.31234973        2.64280807
 C           -0.68552633       -2.07919997        1.79494749
 C           -2.64957483       -0.72452087        2.13300624
 C           -1.79601631        1.44399786        2.89878520
 C           -2.80650505        0.71731469        2.27258186
 C            0.10642217        2.89865359        2.31530707
 C           -1.32257681        2.60932821        2.29788063
 C            0.46581504        3.46715608        1.02863650
 C            2.60066525        2.28844603        1.19223236
 C            1.68475723        3.14681630        0.46326546
 C            3.52093041        0.11499300        0.51388820
 C            3.30133103        1.46073841        0.22218903
 C            3.05869565       -2.16876473       -0.13413858
 C            3.34339299       -0.85306542       -0.48409882
 C            1.04095747       -3.34455915       -0.01251264
 C            2.09555870       -2.91877226       -0.91993117
 C           -1.09694771       -2.35531657        0.47306269
 C           -0.27651975       -3.11354231       -0.37422049
 C           -3.12805298       -1.09845199        0.82393286
 C           -2.30793377       -1.83861302       -0.01497188
 C           -3.41833363        1.21321229        1.05027981
 C           -3.84459650        0.04506322        0.28928290
 C           -1.84495754        3.03093205        1.00645623
 C           -0.72246711        3.47065481        0.19430016
 C           -2.86989787        2.31647283        0.39523742
 C           -0.65092828        3.05480294       -1.13332964
 C            1.73334628        2.76292495       -0.93695402
 C            2.85968475        1.86116543       -1.10180520
 C            0.54492755        2.52532115       -1.62841157
 C            3.13589293       -0.46403388       -1.80530345
 C            2.82137212        0.92100851       -2.11323708
 C            1.73498112       -2.46639412       -2.18449727
 C            2.33229640       -1.30534557       -2.68556130
 C           -0.56430120       -3.17818950       -1.73212574
 C            0.49845348       -2.87202898       -2.68041696
 C           -2.58747553       -1.85281866       -1.38435785
 C           -1.79249188       -2.60461233       -2.23678658
 C           -4.00513114        0.14744983       -1.08221693
 C           -3.41936111       -0.87357052       -1.93542180
 C           -3.01332292        2.43407274       -0.98546182
 C           -1.84553606        2.77866211       -1.78498963
 C           -3.76830750        1.43119095       -1.71206962
 C           -3.04262960       -0.23775746       -3.19160418
 C           -1.83999971        1.93026078       -2.95997876
 C           -3.09146483        1.19402318       -2.97533708
 C            0.53254268        1.61726373       -2.69659677
 C            1.69470934        0.92163212       -3.02724327
 C            1.59082559       -0.41658793       -3.57457673
 C           -0.67032594        1.26981343       -3.31744790
 C           -0.09233250       -2.16410159       -3.79859380
 C           -1.52491227       -2.09579513       -3.57075149
 C           -1.96324876       -0.75263534       -3.89291673
 C            0.37778798       -0.82802362       -4.10207507
 C           -0.76594900        0.06846990       -4.02721545
