   70
C70 / DATE: 7/ 1/2024 / Origin: Program Fullerene / C70 from database
 C            1.27897654        0.08779105        4.72277244
 C            2.49281763       -0.03471275        3.94377595
 C            2.53413779       -1.39159384        3.43178305
 C            0.45485733       -1.08010680        4.43460534
 C            1.19442946       -1.92668766        3.52066104
 C           -0.85514696       -0.60780427        4.03532292
 C            0.45533191        1.26009936        4.52152590
 C           -0.91204523        0.80131558        4.35245587
 C            0.74564489        2.13992343        3.40132722
 C            2.69835884        0.85576573        2.81123434
 C            1.71747331        1.78198780        2.46814679
 C            3.14359500       -1.33777244        2.12035691
 C            3.31462845        0.06526054        1.76654248
 C            2.67721927       -2.19380884        1.12967421
 C            0.59124981       -2.34923493        2.34180368
 C            1.40582079       -2.76474611        1.28751341
 C           -1.38532513       -1.02323896        2.81928155
 C           -0.74951665       -2.03378868        2.08728097
 C           -2.36432247       -0.23900332        2.20471496
 C           -1.54308686        1.68188656        3.39152113
 C           -0.53420071        2.62277726        2.92433694
 C           -2.40881488        1.14137964        2.44638179
 C           -0.63593802        3.08463372        1.61803668
 C            1.52042019        2.11357279        1.12577194
 C            0.48212479        2.98948323        0.78540482
 C            3.13519572        0.42608486        0.43496582
 C            2.23940808        1.45208255        0.11659498
 C            3.14480806       -1.93976968       -0.15347791
 C            3.39133124       -0.55466904       -0.51829455
 C            2.54380481       -2.60514673       -1.29220656
 C            0.80908831       -3.43301550        0.22464290
 C            1.41784550       -3.38996066       -1.09413949
 C           -1.36471370       -2.53922490        0.93710424
 C           -0.63056249       -3.33066092        0.05786743
 C           -3.06592129       -0.77651049        1.13239877
 C           -2.55949449       -1.97922219        0.49462803
 C           -3.58088561        0.09853038        0.09220026
 C           -2.81048267        1.99674857        1.42502918
 C           -1.90199252        3.06208578        1.04028100
 C           -3.41295765        1.46459960        0.21618271
 C           -2.04289298        3.28017528       -0.38551762
 C           -2.89989909        2.22437974       -0.91157452
 C            0.38985158        3.46024844       -0.52194577
 C           -0.92659685        3.66784581       -1.10893385
 C            1.94962367        1.71873718       -1.22429593
 C            1.23585125        2.86661530       -1.53954734
 C            2.93854292       -0.36948325       -1.88322440
 C            2.59142553       -1.67790842       -2.41126701
 C            2.14194259        0.72601755       -2.19310692
 C            1.63619039       -1.76070474       -3.41229845
 C            0.35092807       -3.38046234       -2.08124101
 C           -0.91644152       -3.27586730       -1.36932693
 C            0.52587296       -2.69378208       -3.27522904
 C           -2.81546047       -1.86832326       -0.93387727
 C           -3.33011535       -0.53286805       -1.18979912
 C           -1.92584300       -2.43433316       -1.84128444
 C           -2.54760238        1.57356550       -2.09533668
 C           -2.80718687        0.20476433       -2.25051215
 C           -0.85252643        3.30047470       -2.50864799
 C            0.52211854        2.92849489       -2.79733152
 C           -1.70513612        2.22873752       -2.99307546
 C            1.34586916        0.68705200       -3.34595520
 C            1.11101702       -0.53214851       -3.98093309
 C            0.48638513        1.74403788       -3.62924908
 C           -0.91056852        1.45632286       -3.92557872
 C           -0.63341706       -2.09587295       -3.90806299
 C           -1.82856696       -1.87544779       -3.11506422
 C           -2.25070390       -0.49612700       -3.32007102
 C           -0.22765481       -0.81675159       -4.46365657
 C           -1.27816692        0.14728172       -4.19006485
