   70
C70 / DATE: 7/ 1/2024 / Origin: Program Fullerene / C70 from database
 C            1.12860316        0.00257909        4.59299731
 C            2.36739189       -0.35259441        3.94223722
 C            2.25133034       -1.74235105        3.52708785
 C            0.29055779       -1.18654928        4.59732143
 C            0.85631367       -2.10112724        3.62463652
 C           -1.07365956       -0.74726771        4.41649886
 C            0.33459167        1.07358872        4.02849561
 C           -1.04971597        0.69419988        4.20984621
 C            0.70058594        1.64689857        2.81328206
 C            2.78204645        0.40071718        2.77437305
 C            1.93127316        1.34103765        2.21114582
 C            2.88604427       -1.85249898        2.23882019
 C            3.42192152       -0.54585967        1.89213707
 C            2.25129677       -2.56507690        1.23113802
 C            0.14724194       -2.38717861        2.45362617
 C            0.84680997       -2.65926523        1.25978679
 C           -1.84005803       -1.31311211        3.32769506
 C           -1.24328215       -2.20178382        2.43331553
 C           -1.99071114        0.99753652        3.14454786
 C           -2.65761671       -0.24056406        2.79344575
 C           -0.27870587        2.29782264        2.06380337
 C           -1.60099765        1.84202004        2.11025040
 C            0.13069311        3.07512923        0.99107263
 C            2.15705956        1.72249397        0.88828452
 C            1.41122663        2.77565978        0.37472226
 C            3.52865394       -0.25564324        0.53639343
 C            2.83939744        0.85752169        0.01680064
 C            2.90232753       -2.53863380        0.00311584
 C            3.70946442       -1.36288089       -0.28139856
 C            2.16161676       -2.82465889       -1.20295381
 C            0.13703275       -2.84078241        0.06234094
 C            0.78091727       -2.69187475       -1.16588312
 C           -1.95771778       -2.50745908        1.28317545
 C           -1.24793026       -2.89670050        0.08229501
 C           -3.14902416       -0.37353500        1.50316469
 C           -3.03678930       -1.61728713        0.88318392
 C           -2.36215136        1.83564856        0.93929830
 C           -3.23780930        0.76369001        0.70252303
 C           -0.81209754        3.37590828       -0.06781196
 C           -2.05208882        2.74346329       -0.07905850
 C            1.25683429        2.91156402       -1.06010602
 C           -0.05314288        3.48982797       -1.30280843
 C            2.66714701        0.99010344       -1.37593469
 C            1.73265807        1.90192332       -1.88777936
 C            3.73877025       -1.18313540       -1.71001790
 C            2.91952664       -2.23638486       -2.28921643
 C            3.26139339        0.07147794       -2.24072534
 C            2.20148687       -1.65631773       -3.39790496
 C            2.58459414       -0.25445654       -3.47461787
 C            0.07798560       -2.16621038       -2.26297051
 C            0.75358891       -1.69710020       -3.38314145
 C           -1.98156071       -2.37815552       -1.06017090
 C           -3.17195197       -1.71182082       -0.56146639
 C           -1.26436555       -1.82291225       -2.11629434
 C           -3.84741677        0.62711812       -0.53813672
 C           -3.67003109       -0.62233898       -1.25709851
 C           -2.80262029        2.76584236       -1.25067752
 C           -3.75149426        1.70248670       -1.50032841
 C           -0.68842863        3.23443019       -2.50588156
 C           -2.13105825        3.04490026       -2.50814931
 C            1.12313563        1.67550147       -3.13392211
 C            1.39608594        0.49300081       -3.81099949
 C            0.30691813       -0.45802556       -3.97809214
 C           -0.11433278        2.25245357       -3.40833209
 C           -1.80033463       -0.75075256       -2.84824948
 C           -3.08095585       -0.28462621       -2.53864570
 C           -3.42048060        1.10565163       -2.78519730
 C           -2.43976770        1.95556699       -3.42156041
 C           -0.98178433       -0.00745740       -3.71483792
 C           -1.18444093        1.36661525       -3.83248953
