   70
C70 / DATE: 7/ 1/2024 / Origin: Program Fullerene / C70 from database
 C            1.37910486       -0.14796082        5.13637268
 C            0.55804712       -1.34044477        5.22022727
 C            1.14662275       -2.34631070        4.35324273
 C            2.46632652       -0.42536151        4.21554279
 C            2.26356800       -1.74048609        3.64759864
 C            2.54390352        0.68893624        3.30488407
 C            0.57572842        0.90851688        4.54181072
 C            1.35979704        1.50796023        3.48292154
 C           -0.74594827       -1.01689424        4.67175162
 C           -0.71101158        0.35230250        4.19119618
 C            0.07407692       -2.92215327        3.56710964
 C           -1.09026243       -2.05949481        3.72310694
 C            0.37955305       -3.37884579        2.29242331
 C            2.34441785       -1.89235045        2.26141104
 C            1.60317473       -2.90733440        1.65623326
 C            2.92797320        0.45304216        1.99946787
 C            2.83409187       -0.84286003        1.47035673
 C            2.73544204        1.50175289        1.12128728
 C            0.71587109        1.94445055        2.32445584
 C            1.51548975        2.18473402        1.20703245
 C           -1.21480762        0.60837320        2.92181165
 C           -0.61993619        1.58360757        2.11263580
 C           -1.80053117       -1.70465731        2.58120101
 C           -2.03222730       -0.34724310        2.32407437
 C           -0.66087488       -3.35164318        1.28010907
 C           -1.80644582       -2.59708754        1.51139548
 C            1.36822728       -2.86648568        0.22095217
 C           -0.01041881       -3.25001893       -0.01644851
 C            2.84310425       -0.98443461        0.07369366
 C            1.91541967       -1.83649365       -0.52722524
 C            3.35503267        1.38343358       -0.10539410
 C            3.37819402        0.05442229       -0.68526466
 C            3.00705286        2.32381288       -1.14216453
 C            0.91175825        2.66214023        0.04254308
 C            1.71628709        2.96831363       -1.04882162
 C           -1.20792088        1.85038166        0.87289930
 C           -0.45110755        2.43537210       -0.15203406
 C           -2.72597959        0.00907398        1.17308888
 C           -2.41756896        1.22709779        0.56273440
 C           -2.61749807       -2.30324837        0.42609799
 C           -3.27021867       -1.01221091        0.40369929
 C           -0.71260068       -2.66060514       -1.06219202
 C           -2.08452143       -2.51033029       -0.90986868
 C            1.28926999       -1.45527281       -1.71799914
 C           -0.04409796       -1.82302449       -1.95742248
 C            3.00017162        0.18761816       -2.08184698
 C            3.04651800        1.60320216       -2.39704013
 C            1.94266214       -0.56983710       -2.57952959
 C            1.14554350        2.96825865       -2.38088034
 C            1.99899436        2.14201448       -3.23271509
 C           -1.03883135        2.67297039       -1.40312988
 C           -0.23537322        2.88699745       -2.53639962
 C           -3.08895800        1.59777784       -0.59800183
 C           -2.41181528        2.46776435       -1.54346325
 C           -3.62907867       -0.74591158       -0.97288288
 C           -2.80416001       -1.61949080       -1.79964252
 C           -3.78562574        0.57349938       -1.36422006
 C           -0.75863348       -1.22358823       -2.99963523
 C           -2.15142204       -1.07605961       -2.90099240
 C            1.30251611       -0.13770040       -3.74336183
 C            1.38249027        1.27309081       -4.11648740
 C           -0.05170111       -0.58483330       -4.01360896
 C           -0.71109354        2.55652441       -3.80796392
 C            0.08452175        1.66049248       -4.62348517
 C           -0.69437959        0.45083916       -4.79997566
 C           -2.97325055        2.18651301       -2.85022133
 C           -3.60253591        0.88214436       -2.76811670
 C           -2.79304690       -0.02522735       -3.55817656
 C           -2.08824872        2.15701343       -3.99252041
 C           -2.06882058        0.79145639       -4.50623598
