   70
C70 / DATE: 7/ 1/2024 / Origin: Program Fullerene / C70 from database
 C            1.20322568        0.08139533        4.25802549
 C            2.46893043       -0.21456892        3.63037258
 C            2.42535386       -1.60505778        3.20605535
 C            0.37482834       -1.11144863        4.16097009
 C            1.05035311       -2.03865558        3.27993189
 C           -0.96324864       -0.68587512        3.80774507
 C            0.42216988        1.18798891        3.74777718
 C           -0.96745671        0.76756615        3.74188515
 C            0.89161324        1.94841858        2.68052182
 C            2.87572413        0.57169248        2.48049716
 C            2.01063148        1.52445322        1.94719971
 C            3.08722796       -1.68139988        1.92772632
 C            3.53947549       -0.34368498        1.57795053
 C            2.53362822       -2.45791500        0.91921484
 C            0.40644258       -2.43437398        2.11070500
 C            1.15778603       -2.76183665        0.96707427
 C           -1.66447062       -1.38655842        2.83671093
 C           -0.98289691       -2.30189548        2.02211537
 C           -2.83422846       -0.79734483        2.37154001
 C           -1.85852020        1.39754333        2.87227574
 C           -2.92170347        0.65474473        2.36002030
 C           -0.00939977        2.82606343        2.09721842
 C           -1.43446240        2.54045697        2.19462491
 C            0.25402920        3.35237052        0.77579028
 C            2.14591734        1.87683378        0.59721825
 C            1.36614683        2.91815175        0.07175359
 C            3.61746987       -0.02073595        0.22935018
 C            3.06703897        1.18525246       -0.21333952
 C            3.16925298       -2.36259615       -0.31098431
 C            3.74647253       -1.07860024       -0.67314277
 C            2.54084361       -2.91917075       -1.48274032
 C            0.50312458       -3.27350020       -0.16852397
 C            1.14207143       -3.25953021       -1.40603525
 C           -1.64822221       -2.91200802        0.96823268
 C           -0.88668218       -3.34629607       -0.18537821
 C           -3.48366433       -1.30246527        1.17642487
 C           -2.90691092       -2.36079134        0.49057733
 C           -3.55702632        1.04962425        1.11199531
 C           -4.01227764       -0.16313445        0.44344422
 C           -2.05058058        2.91299138        0.92948130
 C           -1.01697385        3.48225323        0.07688644
 C           -3.03268469        2.10588797        0.36951821
 C           -1.06274729        3.27883834       -1.30304432
 C            1.39411187        3.19746676       -1.28707387
 C            0.13665064        3.24663686       -2.01598593
 C            3.18003385        1.49382464       -1.56610057
 C            2.36596401        2.54506661       -2.13222251
 C            3.50896767       -0.86397785       -2.09215185
 C            2.71290173       -1.97755201       -2.57748251
 C            3.19357398        0.41080676       -2.53156651
 C            0.46910385       -2.62900004       -2.53175695
 C            1.40146088       -1.70649267       -3.14505269
 C           -1.58651050       -2.88531032       -1.37453799
 C           -2.87150394       -2.34929540       -0.96403204
 C           -0.85477412       -2.25260786       -2.37639052
 C           -4.07125727       -0.20091738       -0.94327548
 C           -3.40737907       -1.27679173       -1.66437276
 C           -3.23974898        2.15715309       -1.00512743
 C           -2.18620844        2.67022310       -1.86639322
 C           -3.84825170        1.02538337       -1.68366896
 C           -1.27422116       -1.00659817       -2.84787065
 C           -2.62266002       -0.67688626       -2.73061276
 C           -1.99851828        1.71000571       -2.94469889
 C           -3.02756804        0.70460322       -2.84042050
 C            0.25957116        2.32104062       -3.12907196
 C            1.65454154        1.98331765       -3.27223917
 C            2.01698844        0.58889718       -3.36666174
 C            1.01881180       -0.38590047       -3.35717188
 C           -0.70393290        1.33374420       -3.26961061
 C           -0.32574756       -0.01992251       -3.18009214
