   70
C70 / DATE: 7/ 1/2024 / Origin: Program Fullerene / C70 from database
 C            1.27098152        0.14544940        5.03516164
 C            2.49483742        0.13929599        4.25698305
 C            2.53845982       -1.12064726        3.53783908
 C            0.47518912       -0.99928041        4.61205878
 C            1.22224328       -1.71852053        3.59833784
 C           -0.84826672       -0.52158137        4.27961076
 C            0.42159197        1.32054272        5.00252254
 C           -0.91025595        0.89368239        4.60899667
 C            0.79349928        2.43883262        4.15474540
 C            2.74877968        1.20297919        3.29309917
 C            1.90917024        2.30612908        3.22806712
 C            3.08984930       -0.85513368        2.23143996
 C            3.19693919        0.58008026        2.05945687
 C            2.60726411       -1.56716714        1.15198036
 C            0.59437150       -2.05496707        2.39876481
 C            1.36958621       -2.21736708        1.24963887
 C           -1.43316541       -0.93069242        3.08985948
 C           -0.77926690       -1.85227900        2.26035433
 C           -2.35613824       -0.07194927        2.51235791
 C           -1.40191306        1.81598314        3.59285344
 C           -0.37945005        2.81786128        3.38351358
 C           -2.04648452        1.28206410        2.47982652
 C            1.46445320        2.78036917        1.93065934
 C            0.04556927        3.07678790        2.02546127
 C            2.83049504        1.11205273        0.81882860
 C            1.93122316        2.18217080        0.76108365
 C            2.98270488       -1.10587566       -0.09350789
 C            2.94230664        0.27934758       -0.30488710
 C            2.74964048       -1.96369754       -1.14903132
 C            0.75425223       -2.65138343        0.06950922
 C            1.55244481       -2.77960214       -1.06815682
 C           -1.41003722       -2.22035649        1.06635123
 C           -0.63276117       -2.50645613       -0.07108345
 C           -3.15020383       -0.57872482        1.50803705
 C           -2.73993934       -1.83507578        0.91742945
 C           -3.47218921        0.29592229        0.40293857
 C           -1.90343025        1.89959819        1.22795375
 C           -0.76901271        2.67550579        0.97469104
 C           -2.61945689        1.36760823        0.14194923
 C            1.17403046        2.34557247       -0.39522922
 C           -0.19593812        2.60136511       -0.28181771
 C            2.55106659        0.77354059       -1.55652450
 C            1.67265989        1.85842833       -1.59899759
 C            2.86745389       -1.45517974       -2.49374215
 C            2.72478866       -0.02944647       -2.68488208
 C            0.94326751       -2.78766528       -2.38201122
 C            1.85581472       -2.11621222       -3.29379093
 C           -1.21927210       -2.54365812       -1.35388240
 C           -0.41696040       -2.54534574       -2.49857156
 C           -3.37258663       -1.90392806       -0.37672820
 C           -3.89104815       -0.57233532       -0.67182012
 C           -2.58322005       -2.31422005       -1.51225181
 C           -3.48887245       -0.24910843       -2.01676973
 C           -3.02722312       -1.48821882       -2.61722065
 C           -2.17917651        1.60499839       -1.17616526
 C           -1.01868415        2.36661168       -1.36978009
 C           -2.76843293        0.91659604       -2.25712816
 C            0.95967417        2.14638935       -2.76163540
 C           -0.44643592        2.47881343       -2.62787619
 C            1.88359053        0.16241863       -3.85369695
 C            1.31702019       -1.13594624       -4.21552913
 C            1.10699766        1.30933540       -3.93830970
 C           -0.90786083       -2.01780177       -3.69885039
 C           -2.22553127       -1.40417966       -3.74139478
 C           -0.02674447       -1.23114932       -4.55209767
 C           -2.27346048        1.08460365       -3.54939143
 C           -1.14717201        1.96083050       -3.77592352
 C           -0.18200342        1.25854631       -4.60867944
 C           -2.07505212       -0.10170229       -4.36826457
 C           -0.74457002       -0.03345799       -4.94673144
