   70
C70 / DATE: 7/ 1/2024 / Origin: Program Fullerene / C70 from database
 C            1.51197045       -0.00845706        4.76469406
 C            0.71408434       -1.20293860        4.57222373
 C            1.38532566       -2.04421890        3.59852419
 C            2.64377816       -0.08352326        3.85776114
 C            2.54156325       -1.30889957        3.10279640
 C            2.68755912        1.15123384        3.12158488
 C            0.70050707        1.12860637        4.36013938
 C            1.46893202        1.89195893        3.41093375
 C           -0.63935295       -0.78115389        4.28757031
 C           -0.58705241        0.63094978        3.93805569
 C           -1.41795738       -1.61298339        3.50616426
 C            0.61544598       -2.76812152        2.68962718
 C           -0.77942724       -2.70089448        2.76950502
 C            1.21147565       -3.15054376        1.49116473
 C            2.78262274       -1.28782529        1.73035099
 C            2.35713815       -2.39433663        1.00449881
 C            3.10851276        1.13502021        1.80039353
 C            3.00626740       -0.06539736        1.06563201
 C            2.92167664        2.33481069        1.13244922
 C            0.82245973        2.49175451        2.33549101
 C            1.66712143        3.02971619        1.37362857
 C           -1.11095447        1.04700514        2.71152427
 C           -0.43271374        1.99984582        1.93080950
 C           -2.36532025       -1.00505537        2.59797398
 C           -2.13804866        0.29384793        2.14052395
 C           -1.59171080       -2.94423450        1.58145328
 C           -2.72302450       -2.03407164        1.64484525
 C            0.38689969       -3.48541290        0.34173740
 C           -0.97177855       -3.18329364        0.35772415
 C            2.25345264       -2.31656061       -0.43737881
 C            1.17460069       -3.19970493       -0.84281075
 C            2.94654287       -0.02078697       -0.34275772
 C            2.39748602       -1.08424982       -1.05906063
 C            3.20506315        2.40285291       -0.27684012
 C            3.21473615        1.16416141       -1.01730218
 C            1.13461515        3.42058780        0.09073134
 C            2.20071452        3.26483644       -0.87295925
 C           -0.92820737        2.30852404        0.65335872
 C           -0.13309747        2.99806773       -0.27183635
 C           -2.69402887        0.68472142        0.92416823
 C           -2.15470434        1.77666846        0.24130381
 C           -3.32983703       -1.63952279        0.46955937
 C           -3.51208567       -0.21905943        0.24480508
 C           -1.62387232       -2.83851807       -0.83208009
 C           -2.85937654       -2.19762899       -0.78465645
 C            0.52199828       -2.94273227       -2.03335926
 C           -0.92968977       -2.87114841       -2.03894870
 C            1.82236234       -0.87441907       -2.32086307
 C            1.00635138       -1.86274958       -2.87198355
 C            2.54715968        1.42198464       -2.27924715
 C            1.86058771        2.70153016       -2.15828698
 C            1.88601688        0.38391327       -2.93167124
 C           -0.46589521        2.96856150       -1.62802235
 C            0.54203317        2.76322462       -2.58803781
 C           -2.67188818        2.13270953       -1.00723012
 C           -1.80382905        2.79430543       -1.96449919
 C           -3.73897152       -0.05420452       -1.17445591
 C           -3.21947808       -1.24982186       -1.83014749
 C           -3.49623966        1.18309260       -1.74155821
 C           -1.31802923       -1.97431827       -3.11997000
 C           -0.09229967       -1.48166997       -3.73650479
 C           -2.41181482       -1.12173955       -2.95943145
 C            0.92010554        0.73943948       -3.87848194
 C            0.25599256        2.02228332       -3.72703919
 C           -0.07870308       -0.22408809       -4.31308893
 C           -2.16469954        2.32871882       -3.29156826
 C           -3.09740479        1.22820570       -3.13389425
 C           -2.49365984        0.04365349       -3.72083041
 C           -1.11125900        1.88593792       -4.17626831
 C           -1.33674700        0.48155486       -4.48063628
