   70
C70 / DATE: 7/ 1/2024 / Origin: Program Fullerene / C70 from database
 C            1.53593876        0.10484539        4.37338353
 C            0.72253526       -1.07663135        4.14240597
 C            1.41398853       -1.91724404        3.19456971
 C            2.66155803        0.05009982        3.45890183
 C            2.65981761       -1.25342085        2.83275114
 C            2.60178314        1.21071503        2.59669742
 C            0.73682377        1.26328895        4.01883677
 C            1.41100327        1.96458595        2.95098041
 C           -0.61004921       -0.63756910        3.80883046
 C           -0.61457479        0.81286169        3.77851546
 C           -1.31194208       -1.29588872        2.80810408
 C            0.68875669       -2.55653138        2.19058025
 C           -0.66434210       -2.23550120        1.98596779
 C            1.42202112       -3.09756393        1.14103602
 C            3.09265801       -1.35835646        1.51667921
 C            2.70664529       -2.49857728        0.82064304
 C            2.90128838        1.04527207        1.24727778
 C            3.38101217       -0.18988321        0.79794286
 C            2.36424711        1.94799432        0.32459255
 C            0.65032680        2.49407234        1.91926483
 C            1.28966147        2.75826024        0.71700609
 C           -1.35601062        1.42189441        2.77385701
 C           -0.74828144        2.37004878        1.93450933
 C           -2.45072425       -0.66411069        2.32315831
 C           -2.47314978        0.73849883        2.30716539
 C           -3.28783730       -1.40009567        1.49723160
 C           -1.32995871       -2.71601797        0.84462509
 C           -2.69046712       -2.43898645        0.68202529
 C            0.76375236       -3.43018523       -0.10523463
 C           -0.59449538       -3.19296523       -0.24588781
 C            2.89442226       -2.56620202       -0.61567204
 C            1.66484267       -3.08853909       -1.19948692
 C            3.79939734       -0.29616732       -0.52445241
 C            3.57121334       -1.53769280       -1.24953961
 C            2.76206261        1.87886779       -1.01689914
 C            3.54257115        0.80543768       -1.43719222
 C            2.08082990        2.61148230       -1.98764616
 C            0.62269461        3.54427935       -0.20480679
 C            1.04646783        3.53814409       -1.58668923
 C           -1.49546136        2.93575235        0.88497018
 C           -0.82643357        3.54078721       -0.18342750
 C           -3.34303206        1.42807975        1.47635507
 C           -2.80060151        2.49052301        0.65467652
 C           -4.30555098       -0.73451597        0.71027297
 C           -4.32062094        0.70999199        0.68271739
 C           -3.24763307       -2.31793147       -0.65849241
 C           -4.17063004       -1.19829188       -0.65858535
 C           -1.10027297       -3.06199490       -1.53468868
 C           -2.39946100       -2.45752912       -1.74221964
 C            1.14710630       -2.53789205       -2.37563098
 C           -0.22754482       -2.57923854       -2.59037971
 C            3.20033027       -1.20103163       -2.60805136
 C            3.29617191        0.24000567       -2.75277009
 C            1.89879567       -1.61385361       -3.09981140
 C            1.60079558        1.93185516       -3.18139067
 C            2.13469408        0.69504652       -3.49677554
 C            1.23438708       -0.43743586       -3.64220372
 C           -0.12401054        3.26704206       -2.40738530
 C           -1.27100301        3.23874453       -1.53562758
 C            0.15956009        2.09167238       -3.19707977
 C           -3.20276641        2.21290015       -0.71601487
 C           -4.15315415        1.12931562       -0.69987333
 C           -3.85846500       -0.04473875       -1.48612297
 C           -2.22428850        2.24669921       -1.69622966
 C           -2.20773829       -1.32189070       -2.63477815
 C           -0.87989426       -1.42900800       -3.19866274
 C           -0.13584460       -0.28249550       -3.42968970
 C           -0.65131094        0.96569219       -3.05901158
 C           -2.70601545       -0.07535578       -2.27115187
 C           -1.87659426        1.05657692       -2.36696982
