   70
C70 / DATE: 7/ 1/2024 / Origin: Program Fullerene / C70 from database
 C            1.58364812        0.08731530        4.58368403
 C            0.78160652       -1.11858685        4.50245298
 C            1.43203713       -2.03021047        3.58003269
 C            2.66743980       -0.03315444        3.62250388
 C            2.60414404       -1.35318023        3.03922002
 C            2.60499994        1.10439566        2.73184708
 C            0.74708752        1.19652617        4.16407080
 C            1.44353155        1.89037636        3.10679995
 C           -0.58512703       -0.72570527        4.23029629
 C           -0.57719738        0.68610946        3.87699836
 C           -1.37053716       -1.58497425        3.48419979
 C            0.64912835       -2.80445143        2.72274300
 C           -0.74422884       -2.70331382        2.78419546
 C            1.24436771       -3.30970121        1.56884214
 C            2.88808630       -1.50432946        1.68785282
 C            2.46140566       -2.68167072        1.08290278
 C            2.84970577        0.91360642        1.37144919
 C            3.13905243       -0.37302400        0.89547258
 C            2.38511510        1.88903847        0.47788296
 C            0.70535032        2.44157400        2.07656748
 C            1.39796406        2.77683207        0.92828792
 C           -1.21440047        1.10503035        2.70674724
 C           -0.65771952        2.14335050        1.95291324
 C           -2.34942930       -1.01745339        2.58005568
 C           -2.19682650        0.29644489        2.13448179
 C           -1.54470441       -2.96788300        1.59408870
 C           -2.67535878       -2.05626358        1.62342557
 C            0.42669456       -3.62909284        0.40934620
 C           -0.90959529       -3.24140070        0.38571997
 C            2.49162444       -2.81345981       -0.36160061
 C            1.25449295       -3.45989113       -0.77255516
 C            3.39906019       -0.54112181       -0.46124546
 C            3.01849523       -1.77970251       -1.12088954
 C            2.66100561        1.76354989       -0.89169145
 C            3.12781150        0.54942339       -1.37974179
 C            2.07269309        2.63610514       -1.80395024
 C            0.75188203        3.61706935        0.04239993
 C            1.22956709        3.70275102       -1.31514911
 C           -1.33621798        2.60989756        0.82091004
 C           -0.69735828        3.55826441        0.01565272
 C           -2.78367604        0.67281400        0.92510576
 C           -2.40143832        1.86515378        0.30322722
 C           -3.26604711       -1.68235617        0.43238846
 C           -3.51741996       -0.27286813        0.20761926
 C           -1.51247298       -2.86833139       -0.82167119
 C           -2.74305732       -2.21750170       -0.81253950
 C            0.65474679       -3.10538745       -1.97077113
 C           -0.78116626       -2.89235195       -2.00598361
 C            2.41752022       -1.44378541       -2.40224092
 C            2.50918676       -0.00643203       -2.57429012
 C            1.27608914       -2.10526112       -2.82602524
 C            1.44417823        2.08169180       -2.99482220
 C            1.47597231        0.70158906       -3.18765147
 C            0.07427350        3.80847897       -2.18796281
 C           -1.12085224        3.76746381       -1.35799883
 C            0.23077682        2.83621130       -3.25730813
 C           -2.94683016        2.19446672       -0.94131805
 C           -2.24063727        3.10264612       -1.82849232
 C           -3.69431031       -0.10976318       -1.22035687
 C           -3.05348962       -1.25387853       -1.86153184
 C           -3.53648293        1.15092190       -1.76571768
 C           -1.05631652       -1.90516956       -3.03813908
 C            0.21737220       -1.35067029       -3.47094706
 C            0.33160355        0.02772662       -3.63956135
 C           -2.15372085       -1.05750400       -2.91251076
 C           -0.89057501        2.17388470       -3.72826664
 C           -2.18587287        2.48275808       -3.14306909
 C           -2.95846234        1.25567394       -3.08939306
 C           -0.82940529        0.73831708       -3.93984637
 C           -2.11878218        0.17237351       -3.56714534
