   70
C70 / DATE: 7/ 1/2024 / Origin: Program Fullerene / C70 from database
 C            1.07292602       -0.01743824        4.89300681
 C            2.41057579       -0.31151600        4.42541788
 C            2.36093171       -1.60632975        3.76135514
 C            0.25809188       -1.19736077        4.64546255
 C            0.96983278       -2.00572867        3.67964073
 C           -1.06793602       -0.73785123        4.31184925
 C            0.35759030        1.11090156        4.32185728
 C           -1.03256421        0.71767813        4.30604647
 C            0.88038280        1.78485829        3.21372843
 C            3.04215431        0.62325304        3.51608935
 C            2.23699962        1.66137155        2.89719644
 C            3.11241637       -1.49670549        2.52869190
 C            3.64209860       -0.14904763        2.44369326
 C            2.58116241       -2.03413364        1.36797291
 C            0.42062235       -2.24036766        2.41702924
 C            1.28226490       -2.55545300        1.37107980
 C           -1.65056453       -1.14815173        3.04892612
 C           -0.88852836       -1.84463857        2.11282793
 C           -1.85040367        1.15523597        3.20051408
 C           -2.43102917       -0.02250374        2.59088688
 C            0.01771534        2.35090515        2.26375615
 C           -1.36878079        2.13288448        2.34218491
 C            0.56753288        2.80274762        1.05806169
 C            2.64734005        1.75116127        1.50395712
 C            3.44520969        0.58088327        1.19583413
 C            1.71530223        2.18691664        0.57806021
 C            3.06126979       -1.53054024        0.16915613
 C            3.14255871       -0.14525311        0.04617352
 C            2.78758202       -2.27193533       -0.96028226
 C            0.74410251       -2.94056481        0.14564802
 C            1.66318375       -3.18003849       -0.86882605
 C           -1.29910594       -1.82103924        0.77387066
 C           -0.54025651       -2.48667389       -0.19176358
 C           -2.73519220        0.06793224        1.24463182
 C           -2.31690344       -0.94402988        0.37620222
 C           -2.13807561        2.38910212        1.20996878
 C           -2.93238643        1.33995582        0.72177208
 C           -0.24431093        3.45497386        0.14631774
 C           -1.67253339        3.36629840        0.33985279
 C            0.00142417        3.22504029       -1.26588457
 C            1.70677405        1.64543786       -0.71284533
 C            2.42561302        0.47845352       -0.98461445
 C            0.77945885        2.12953658       -1.63806584
 C            2.61255082       -1.56638301       -2.20632172
 C            2.16063781       -0.24592622       -2.15118916
 C            1.19297736       -3.40464478       -2.21345017
 C            1.96729583       -2.52332555       -3.07833179
 C           -0.96109910       -2.47777399       -1.53121773
 C           -0.19700507       -3.14348195       -2.49542844
 C           -2.65921498       -0.83928639       -0.97596198
 C           -2.01273618       -1.63575412       -1.92671995
 C           -3.52195579        1.42092733       -0.53052791
 C           -3.42775821        0.25681171       -1.39596617
 C           -2.29725403        3.54118752       -0.95374935
 C           -1.23979565        3.48903892       -1.95492971
 C           -3.32479785        2.60419499       -1.34436446
 C           -3.32086936        0.74101080       -2.76449418
 C           -1.65727760        2.57568576       -2.98949628
 C           -3.01670248        2.15970387       -2.68777234
 C            0.41400165        1.34040700       -2.74021046
 C            1.17179322        0.19720198       -3.04468101
 C           -0.77774522        1.60314032       -3.44932628
 C            1.07187405       -2.02933587       -4.09016050
 C           -0.20936742       -2.68134478       -3.86692845
 C            0.80346083       -0.60793570       -4.12972971
 C           -2.22033287       -1.35667906       -3.28187226
 C           -2.58665672       -0.01125946       -3.66093682
 C           -1.36276596        0.57693517       -4.18020524
 C           -1.22463798       -1.73998033       -4.25906895
 C           -0.54116481       -0.51136075       -4.64339731
