   70
C70 / DATE: 7/ 1/2024 / Origin: Program Fullerene / C70 from database
 C            1.48328402        0.06860640        4.85183225
 C            0.69139988       -1.13748993        4.68620961
 C            1.52210618       -2.11844260        4.02772446
 C            2.68514123       -0.08165206        4.04921840
 C            2.76875777       -1.46735530        3.65150724
 C            2.66100495        0.93378731        3.01037998
 C            0.72104509        1.17204807        4.29837078
 C            1.52112820        1.79704109        3.26422632
 C           -0.56113758       -0.76427234        4.05747547
 C           -0.59173035        0.67910327        3.92431760
 C           -1.06378594       -1.51794900        3.00461164
 C            1.00184014       -2.77913304        2.84578697
 C           -0.29896192       -2.54465430        2.42872955
 C            3.00311938       -1.76128693        2.25411784
 C            2.04124116       -2.76974620        1.84029920
 C            2.94856988        0.58894949        1.68782853
 C            3.29576583       -0.73285587        1.36346362
 C            2.52656972        1.45817888        0.67463052
 C            0.85318584        2.32687981        2.17077339
 C            1.52037388        2.39295330        0.95155381
 C           -1.18547461        1.22103103        2.78652665
 C           -0.53963071        2.28538192        2.15848254
 C           -2.08304169       -0.95139894        2.24328752
 C           -2.06870001        0.43296751        2.03556804
 C           -2.73497298       -1.77645999        1.33877247
 C           -0.64688786       -2.98221315        1.15653744
 C           -1.99037599       -2.90703357        0.82258923
 C            1.68004857       -2.81537965        0.49285707
 C            0.32693184       -2.95054745        0.14295983
 C            3.35902118       -1.09571524        0.02537872
 C            2.55533657       -2.22704280       -0.41387837
 C            2.90675819        1.21119696       -0.64592901
 C            3.28104494       -0.07597847       -0.99997605
 C            2.48223036        2.06847583       -1.65493009
 C            0.92553151        3.10584740       -0.08761857
 C            1.53509154        3.11748691       -1.33521892
 C           -1.19946718        2.93802256        1.13089110
 C           -0.41455062        3.47588795        0.03230735
 C           -2.65312243        0.98152308        0.88462957
 C           -2.37304434        2.30759061        0.55720640
 C           -3.46353542       -1.19168162        0.23397739
 C           -3.30817781        0.16106592       -0.04066526
 C           -2.39509044       -3.12782955       -0.54518972
 C           -3.41927017       -2.14655572       -0.86127038
 C           -0.05950455       -2.82186250       -1.20390711
 C           -1.38325804       -3.05610754       -1.57339912
 C            2.11747115       -1.96033237       -1.76695755
 C            2.68454682       -0.68452080       -2.17756953
 C            0.82078430       -2.27270510       -2.14237755
 C            2.09540414        1.50433683       -2.94081505
 C            1.97969007        0.12088564       -3.06786019
 C            0.73653726        3.37228525       -2.52295155
 C            1.08537606        2.37244178       -3.51893523
 C           -1.27468525        3.50546128       -1.14111347
 C           -2.48099491        2.75702854       -0.82048143
 C           -0.70919464        3.40537341       -2.40566006
 C           -3.52958894        0.60949389       -1.34465063
 C           -3.04266611        1.91149885       -1.76384818
 C           -3.16394988       -1.65856653       -2.20332057
 C           -1.95722342       -2.31697041       -2.68501302
 C           -3.35706325       -0.30789345       -2.46218152
 C            0.32463723       -1.68602609       -3.30356401
 C            0.89872468       -0.42922898       -3.76121611
 C           -1.10609820       -1.64534219       -3.55003498
 C           -0.14272023        1.78737790       -4.01909838
 C           -1.25644538        2.46426671       -3.37102060
 C           -2.41530930        1.75656596       -3.06848282
 C           -2.53426736        0.35940528       -3.45733459
 C           -0.19522599        0.41522690       -4.22503170
 C           -1.44054603       -0.30344386       -4.00352713
