   70
C70 / DATE: 7/ 1/2024 / Origin: Program Fullerene / C70 from database
 C            1.32854963        0.16299889        4.76521670
 C            2.58166689        0.04864304        4.04993413
 C            2.59088719       -1.24293574        3.38132250
 C            0.50824728       -0.98354540        4.40157278
 C            1.24361464       -1.76963446        3.42865001
 C           -0.80635253       -0.49237540        4.03791033
 C            0.53090900        1.35689183        4.57231037
 C           -0.83149378        0.93661458        4.29094473
 C            0.90805088        2.30270189        3.53529864
 C            2.91990624        1.04617004        3.04837624
 C            1.99366456        2.03234286        2.69809310
 C            3.20710207       -1.05220884        2.08335782
 C            3.62737238        0.33628513        2.00049706
 C            2.62461793       -1.63290987        0.96180113
 C            0.61848501       -2.11047724        2.23344066
 C            1.38060171       -2.27138183        1.07733048
 C           -1.39630006       -0.95323994        2.86892896
 C           -0.75855865       -1.94053249        2.11186785
 C           -2.32179085       -0.13121646        2.23781895
 C           -1.35800886        1.81070180        3.25162285
 C           -0.32962674        2.79436318        2.95762899
 C           -2.07493185        1.24100985        2.19915652
 C           -0.29450502        3.35748858        1.69518009
 C            2.02526818        2.58270408        1.41168763
 C            0.96006597        3.35953374        0.96269169
 C            3.71588180        0.91975603        0.74752227
 C            2.96976802        2.13973629        0.48851559
 C            3.06165756       -1.21002786       -0.29266872
 C            3.57750480        0.07531526       -0.42801013
 C            2.56682813       -1.84458404       -1.42142991
 C            0.76212731       -2.77543207       -0.06667777
 C            1.48125470       -2.78791650       -1.25788729
 C           -1.39826043       -2.41155779        0.96441879
 C           -0.63113015       -2.90778441       -0.09607857
 C           -3.11129750       -0.69620353        1.25293802
 C           -2.70318257       -1.98261023        0.72526495
 C           -3.48132157        0.12041373        0.11722595
 C           -2.15037333        1.91362724        0.97294572
 C           -1.34411120        3.02327925        0.74818781
 C           -2.76666286        1.29147135       -0.11573771
 C            0.63458928        3.38425741       -0.45559142
 C           -0.81022676        3.24026323       -0.57949680
 C            2.65761598        2.17175576       -0.93428271
 C            3.10389891        0.91345264       -1.51579209
 C            1.46629537        2.74361371       -1.37289689
 C            2.27941920       -1.05357283       -2.60996419
 C            2.36694214        0.33510103       -2.54489630
 C            0.78149287       -2.86096559       -2.52515014
 C            1.16360984       -1.68614296       -3.29867818
 C           -1.26394266       -3.31681192       -1.27392494
 C           -0.53870759       -3.27505825       -2.53410087
 C           -3.27678380       -2.10325809       -0.60141647
 C           -3.77596983       -0.78346358       -0.97891698
 C           -2.63143689       -2.89805107       -1.53677009
 C           -3.62582464       -0.32743978       -2.27942831
 C           -2.38819921        1.62931660       -1.42439267
 C           -1.32262544        2.50919742       -1.64191077
 C           -2.91130800        0.91767021       -2.50754357
 C            0.92824526        2.32702951       -2.58763743
 C            1.43068016        1.11389491       -3.21649886
 C           -0.51385435        2.34046329       -2.76038018
 C            0.18047737       -0.90401385       -3.90283707
 C           -2.10682716        0.75377826       -3.70893674
 C            0.32133774        0.48327010       -3.91898586
 C           -0.84972401        1.33383422       -3.74873811
 C           -1.42516053       -2.72554254       -3.54225359
 C           -2.74072747       -2.56904238       -2.94660073
 C           -3.24792029       -1.26278216       -3.32416204
 C           -1.06611839       -1.46722833       -4.17362527
 C           -2.24537102       -0.61899947       -4.15535993
