   70
C70 / DATE: 7/ 1/2024 / Origin: Program Fullerene / C70 from database
 C            1.65003652        0.03049031        4.50738744
 C            0.85060726       -1.17653376        4.43776124
 C            1.33321984       -1.98587794        3.32827150
 C            2.66029473       -0.05691999        3.47353727
 C            2.48331630       -1.31157808        2.76293538
 C            2.60677593        1.16715774        2.69459837
 C            0.78215436        1.14628347        4.17335110
 C            1.37514804        1.84978979        3.04958052
 C           -0.54117178       -0.77260712        4.42381199
 C           -0.56521613        0.62833679        4.02748920
 C           -1.43861345       -1.63315355        3.81850946
 C            0.38897172       -2.56575763        2.48515157
 C           -0.89872179       -2.70420733        2.99621638
 C            0.58333465       -2.52229227        1.09262063
 C            2.64395540       -1.28426528        1.38819924
 C            1.78127729       -2.02000749        0.57078236
 C            2.93250668        1.08066535        1.34761595
 C            3.27522089       -0.17154889        0.84582105
 C            2.37251248        2.00338386        0.46556686
 C            0.54938293        2.28509444        2.01903148
 C            1.12457265        2.56171368        0.77632409
 C           -1.30287815        1.00752687        2.90719690
 C           -0.82369026        2.03748008        2.09450082
 C           -2.51974441       -1.06349601        3.04247237
 C           -2.33136771        0.17842468        2.44275757
 C           -1.96566430       -3.13537926        2.12688364
 C           -3.03626523       -2.15208077        2.24580253
 C           -0.44777788       -2.89391024        0.21509193
 C           -1.68666485       -3.29041909        0.71797828
 C           -0.34258709       -2.59754096       -1.14802053
 C            1.95439386       -1.93310398       -0.81437995
 C            0.84286610       -2.06021154       -1.65536439
 C            3.68735868       -0.25142826       -0.46946831
 C            3.10548239       -1.29976637       -1.28451624
 C            2.82997118        2.00547086       -0.85247253
 C            3.65589848        0.95777050       -1.26755134
 C            2.20035843        2.82190547       -1.78783193
 C            0.33812537        3.13827661       -0.22513578
 C            0.86575387        3.30942951       -1.50179798
 C           -1.64725877        2.53314453        1.09632218
 C           -1.04768890        3.12371794       -0.08770731
 C           -2.96829609        0.47377162        1.22975526
 C           -2.78797178        1.73941339        0.67542292
 C           -3.49865931       -1.86572820        0.90753143
 C           -2.88844806       -2.85705821        0.03675210
 C           -3.56862875       -0.54449652        0.47032859
 C           -1.49725852       -2.55256822       -1.93848508
 C           -2.81042584       -2.57608053       -1.31417859
 C           -1.55818786       -1.60796790       -3.03890929
 C            0.80410333       -1.39231137       -2.88807849
 C           -0.41036190       -0.90263265       -3.34903218
 C            3.17181186       -0.85106385       -2.66145749
 C            3.65818490        0.52136732       -2.65151729
 C            1.96394413       -0.87784813       -3.45063764
 C            2.24759101        2.49364777       -3.20467920
 C            2.89976605        1.27181358       -3.62854400
 C            1.87721648        0.38685734       -4.16373266
 C            0.02638868        2.99691169       -2.65108670
 C           -0.51243524        0.45461746       -3.65236216
 C            0.87854010        2.45121689       -3.68893429
 C            0.61167579        1.10463699       -4.14787262
 C           -1.85951419        2.74757562       -1.23268399
 C           -2.97008716        1.94476612       -0.75110254
 C           -1.21667779        2.41539740       -2.42149579
 C           -1.53067798        1.20749736       -3.05739950
 C           -3.82791971       -0.33972302       -0.88428582
 C           -3.54322583       -1.42321227       -1.80876952
 C           -2.80216160       -0.87206597       -2.92674516
 C           -3.43469573        0.90105735       -1.52888548
 C           -2.73177434        0.56823231       -2.75823780
