   70
C70 / DATE: 7/ 1/2024 / Origin: Program Fullerene / C70 from database
 C            1.59680331       -0.10241840        4.70450211
 C            0.76157349       -1.28623221        4.70363229
 C            1.11159334       -2.09351542        3.54617201
 C            2.53952597       -0.23523290        3.61286074
 C            2.26301270       -1.47734647        2.91554164
 C            2.48491494        0.98828393        2.83796753
 C            0.73911964        1.03206681        4.40227773
 C            1.26533906        1.67595675        3.22120043
 C           -0.60820963       -0.83623580        4.81716386
 C           -0.62460114        0.55402815        4.37121395
 C           -1.58905624       -1.67807147        4.32675479
 C            0.07661519       -2.59135892        2.75677786
 C           -1.19098561       -2.67734197        3.33937614
 C            0.21415464       -2.59235474        1.35569774
 C            2.34418746       -1.45469898        1.53278563
 C            1.42647215       -2.18645292        0.77495748
 C            2.75891186        0.90014353        1.47986937
 C            2.97891600       -0.36502741        0.94143826
 C            2.20911961        1.86750096        0.64427842
 C            0.39824796        2.05915722        2.20566359
 C            0.97020524        2.41646576        0.99219189
 C           -1.45761746        0.91921479        3.30927845
 C           -0.93208353        1.61520506        2.20567685
 C           -2.79396938       -1.05956013        3.81965282
 C           -2.66538525        0.23638450        3.17347391
 C           -2.34041515       -2.93979299        2.50533209
 C           -3.37660509       -1.98637235        2.87144557
 C           -0.89324966       -2.82852980        0.52688255
 C           -2.17408701       -2.87604301        1.07225037
 C           -0.79723387       -2.49084334       -0.82086731
 C            1.57028842       -2.18616024       -0.61957770
 C            0.45760616       -2.45594045       -1.42068242
 C            3.28607788       -0.45338783       -0.40427253
 C            2.66791301       -1.51847620       -1.16738600
 C            2.61317864        1.88961495       -0.69132665
 C            3.22213768        0.75200624       -1.21655539
 C            2.01144158        2.79726507       -1.55760048
 C            0.14230706        2.89195721       -0.01018324
 C            0.74982591        3.39120099       -1.15424616
 C           -1.67408622        1.69270401        1.01567955
 C           -1.15409756        2.37898678       -0.08676169
 C           -3.29216349        0.13983193        1.86717831
 C           -3.71378432       -1.23406411        1.68038876
 C           -3.16044067       -1.94709078        0.55152174
 C           -2.69939459        0.77757032        0.78726771
 C           -1.85014236       -1.77653722       -1.40236805
 C           -2.78760766       -1.20872908       -0.55824351
 C           -2.79387132        0.18197056       -0.47214081
 C           -1.64690618       -1.16120345       -2.62808825
 C            0.51599983       -2.24864011       -2.80042160
 C           -0.65441707       -1.68713395       -3.44418901
 C            2.64727299       -1.09210991       -2.55349631
 C            2.92680876        0.33919998       -2.57946271
 C            1.67795234       -1.60682398       -3.39279042
 C            1.91052795        2.47905345       -2.97402758
 C            2.18324187        1.17956664       -3.40575950
 C           -0.04980854        3.59245281       -2.34490708
 C            0.75678177        3.19929597       -3.48767014
 C           -1.71646797        2.12921471       -1.34283544
 C           -2.31783911        0.89272928       -1.56950521
 C           -1.99974810        0.18834478       -2.73430461
 C           -1.31230222        2.89260270       -2.43448425
 C           -0.12018253        2.54527680       -4.43479949
 C           -1.70912274        0.90495434       -3.89245063
 C           -1.39455455        2.31605082       -3.76732175
 C           -0.21813960       -0.95703584       -4.61611902
 C            1.22205755       -0.79373533       -4.50759259
 C            1.49557659        0.63301018       -4.49221645
 C           -0.79316393        0.34784820       -4.87058289
 C            0.30603118        1.28738158       -5.01311529
