   70
C70 / DATE: 7/ 1/2024 / Origin: Program Fullerene / C70 from database
 C            1.36148002       -0.03562232        4.41322204
 C            2.57082437       -0.32248049        3.67791780
 C            2.52799917       -1.71918470        3.27755904
 C            0.51525447       -1.21576263        4.37025990
 C            1.25998263       -2.27706000        3.71525982
 C           -0.77589217       -0.82251763        3.82312781
 C            0.56143577        1.08875871        3.98427472
 C           -0.78861874        0.62091285        3.72034204
 C            1.09507868        2.01753439        3.10121955
 C            2.86470773        0.47284797        2.49841347
 C            2.11073919        1.61011999        2.21726903
 C            2.87743576       -1.79019219        1.86835703
 C            3.16514984       -0.44164506        1.41291557
 C            2.16027692       -2.63868376        1.02905481
 C            0.57828794       -3.12310802        2.85333101
 C            1.18427190       -3.47230979        1.58017574
 C           -1.32837218       -1.57658696        2.79948644
 C           -0.82208061       -2.85539938        2.57239364
 C           -2.07224945       -0.94046367        1.80243577
 C           -1.49456431        1.23834810        2.69015540
 C           -2.00538590        0.45199488        1.64772941
 C            0.20417794        2.98931868        2.67081137
 C           -1.17080903        2.56681307        2.43758780
 C            0.59169805        3.84978426        1.57763553
 C            2.11567028        2.08977108        0.90252118
 C            1.56359412        3.33623106        0.64066792
 C            2.80320349       -0.09317614        0.11859564
 C            2.35772143        1.20474588       -0.15358435
 C            2.13031543       -2.36360718       -0.34011284
 C            2.54826502       -1.10889276       -0.79729516
 C            1.39848751       -3.20125950       -1.18039084
 C            0.11026215       -3.97638004        0.73823499
 C           -1.14753669       -3.55001780        1.33979295
 C            0.26456263       -3.92664287       -0.63896945
 C           -2.68082546       -1.71528804        0.82212026
 C           -2.15775656       -3.04245703        0.53632826
 C           -3.05577298       -1.10523152       -0.43647848
 C           -2.34420075        1.04086866        0.41313351
 C           -2.79166052        0.24259799       -0.64845037
 C           -1.62558913        3.19667509        1.21927135
 C           -0.61146524        4.16112389        0.83334368
 C           -2.21478290        2.42355817        0.22650204
 C            1.08014722        3.63860605       -0.69371316
 C           -0.24753883        4.23412458       -0.56393886
 C            2.02531688        1.55823775       -1.46915212
 C            1.32414665        2.74076544       -1.73116488
 C            2.41972896       -0.77290044       -2.13833916
 C            2.18850679        0.61785696       -2.48685560
 C            1.03964395       -2.75941893       -2.51616629
 C            1.60943344       -1.59843131       -3.01739116
 C           -0.88306930       -3.63431804       -1.48284585
 C           -2.06689276       -3.18358344       -0.90661044
 C           -2.77617558       -2.06138178       -1.49659258
 C           -0.38409023       -3.00561515       -2.69621610
 C           -2.39647081       -1.58683432       -2.74364125
 C           -1.16822032       -2.06950441       -3.36020834
 C           -2.74244608        0.72213400       -1.95938205
 C           -2.48726688       -0.16289544       -3.00671297
 C           -2.25656003        2.94918619       -1.06551580
 C           -1.21342107        3.87874271       -1.48978379
 C           -2.55662079        2.07870154       -2.18480494
 C            0.55332517        2.84584570       -2.89097893
 C           -0.76014883        3.45144395       -2.79555724
 C           -1.71998140        2.49019594       -3.29985018
 C            1.30428755        0.64300983       -3.63955742
 C            0.82536184       -0.71249448       -3.86204833
 C           -0.53527750       -0.94490875       -4.03354578
 C           -1.46526874        0.17011280       -3.98640457
 C            0.43796891        1.71440828       -3.79523314
 C           -0.98173803        1.47087956       -4.02395411
