   70
C70 / DATE: 7/ 1/2024 / Origin: Program Fullerene / C70 from database
 C            1.32409459       -0.14730755        4.30640247
 C            2.62406861       -0.36261903        3.69990286
 C            2.59074766       -1.64759007        3.02219955
 C            0.49808340       -1.30466951        4.00793805
 C            1.24272724       -2.17438774        3.12266556
 C           -0.79325423       -0.82691816        3.56480358
 C            0.56805398        1.04123761        3.95074747
 C           -0.76560821        0.62379875        3.54914476
 C            1.19109395        2.06416194        3.25171500
 C            3.13431983        0.62085464        2.76168352
 C            2.50493158        1.85249140        2.65218081
 C            3.16197094       -1.47254001        1.69918160
 C            3.53279103       -0.07628853        1.54953134
 C            2.55996959       -2.11010986        0.62259921
 C            0.62776436       -2.63129311        1.96255557
 C            1.41927924       -2.88753101        0.84729215
 C           -1.42276960       -1.46648861        2.51087745
 C           -0.75254568       -2.46705925        1.79402001
 C           -2.46810321       -0.79838663        1.89742562
 C           -1.42398843        1.29093382        2.51209109
 C           -2.39370280        0.59623056        1.77264798
 C            0.40670009        2.85919672        2.32597624
 C           -0.89983820        2.49224904        2.01942458
 C            2.51958364        2.53487419        1.37213656
 C            1.28607914        3.29462870        1.25293053
 C            3.34967809        0.53256785        0.30823508
 C            3.02272926        1.89541897        0.24524803
 C            2.81044658       -1.61970667       -0.65788270
 C            3.18591633       -0.28242786       -0.81884859
 C            2.36424782       -2.34773449       -1.75767964
 C            0.85484181       -3.58580427       -0.20915617
 C            1.41166226       -3.41902230       -1.53862576
 C           -1.37793047       -3.03950403        0.67410710
 C           -0.59214639       -3.61214531       -0.32958926
 C           -3.27913054       -1.53799341        1.05784439
 C           -2.67676760       -2.64448483        0.34070997
 C           -4.18671783       -0.85737038        0.16244816
 C           -3.12022101        1.26363172        0.77679448
 C           -4.04626859        0.57182367       -0.00197004
 C           -1.48812175        3.09137469        0.91482933
 C           -2.65750473        2.48776424        0.30732050
 C            0.75084134        3.52877570       -0.01363198
 C           -0.63587956        3.59351026       -0.15465508
 C            2.75695936        2.48427426       -0.98511141
 C            1.53630839        3.26290986       -1.13808287
 C            3.14491418        0.29077645       -2.08672340
 C            2.95515155        1.72039973       -2.19868778
 C            1.94563502       -1.64372235       -2.95707299
 C            2.32747386       -0.32425252       -3.11697468
 C            0.30890515       -3.22378384       -2.46640093
 C           -0.92519808       -3.34078047       -1.72154486
 C            0.55537997       -1.99461467       -3.18492347
 C           -3.00736370       -2.46277304       -1.06272050
 C           -4.05979176       -1.47309321       -1.14970897
 C           -1.96855131       -2.46251875       -1.98610256
 C           -4.10089106        0.84533549       -1.42818319
 C           -3.92834821       -0.41624484       -2.12590336
 C           -2.58016007        2.71805760       -1.12855479
 C           -1.24342678        3.19912592       -1.41485826
 C           -3.15348053        1.79221736       -1.98472630
 C            0.89651868        2.83696803       -2.37487452
 C            1.80577900        1.94460652       -3.06311633
 C            1.31369386        0.64916980       -3.48078827
 C           -0.46252304        2.54860403       -2.36184321
 C           -0.41407199       -0.99664887       -3.14700502
 C           -1.71960208       -1.31128461       -2.75647840
 C           -2.69915265       -0.32833180       -2.89117408
 C           -2.28929191        1.06580812       -2.90434260
 C           -0.02861105        0.34216857       -3.27353417
 C           -0.92837834        1.36148535       -2.94413442
