   70
C70 / DATE: 7/ 1/2024 / Origin: Program Fullerene / C70 from database
 C            1.11282135       -0.20363079        4.92178342
 C            2.32725801       -0.38216723        4.14679847
 C            2.23816628       -1.67055959        3.48084754
 C            0.27235431       -1.37145994        4.70172657
 C            0.88752613       -2.16079576        3.65372053
 C           -1.08517062       -0.91308514        4.51497778
 C            0.29464766        0.97512199        4.69698940
 C           -1.08473666        0.53709891        4.61850848
 C            0.73444506        1.96750633        3.82782897
 C            2.68029070        0.60634570        3.14362272
 C            1.96610906        1.79207572        3.06361786
 C            2.72848220       -1.50843859        2.12418762
 C            3.01445895       -0.09997642        1.91884828
 C            2.08877504       -2.19100631        1.09571968
 C            0.16995656       -2.48896728        2.50643320
 C            0.89342788       -2.85924004        1.37306508
 C           -1.77385673       -1.26141388        3.28751448
 C           -1.15640395       -2.06155533        2.33838156
 C           -1.92728373        1.05193759        3.55394383
 C           -2.47817722       -0.08365692        2.82778387
 C           -0.22273274        2.65429763        2.97025768
 C           -1.52700998        2.17081845        2.82980630
 C            1.77289544        2.41062089        1.76448446
 C            0.50609200        3.11320898        1.79564845
 C            2.70090401        0.45778895        0.68003338
 C            2.13026340        1.73211307        0.60110203
 C            2.30956941       -1.74873995       -0.20554587
 C            2.59061070       -0.39458644       -0.41686283
 C            1.83564489       -2.52368438       -1.26114290
 C            0.18471549       -3.40779665        0.31265023
 C            0.76986930       -3.38470230       -1.01601635
 C           -1.70550874       -2.08460268        1.05983298
 C           -1.20723552       -3.02383963        0.17186288
 C           -2.74272134        0.06537677        1.46610128
 C           -2.33824601       -0.93451198        0.56828986
 C           -2.21652371        2.44650330        1.65485499
 C           -2.92893456        1.35958950        0.99912992
 C           -0.17394886        3.28971207        0.60111182
 C           -1.56286828        3.20999336        0.60967183
 C            1.57348951        2.15036774       -0.61076717
 C            0.50159948        3.05679001       -0.59582284
 C            2.40464807        0.15573853       -1.68079992
 C            1.88550788        1.44736308       -1.78037021
 C            2.07534592       -2.09840818       -2.56315638
 C            2.38366993       -0.69748627       -2.78213785
 C            1.18092764       -2.53058501       -3.62497031
 C           -0.34086456       -3.43323907       -1.95160929
 C           -1.49112970       -2.89594370       -1.24168831
 C           -0.12674693       -3.05179343       -3.26688010
 C           -2.39368845       -0.70306020       -0.81840988
 C           -2.10644891       -1.74147632       -1.71207388
 C           -2.91429781        1.62052151       -0.42567200
 C           -2.26153068        2.90350497       -0.62652740
 C           -2.64542036        0.58470407       -1.31178984
 C           -0.16903742        3.35008715       -1.77810816
 C           -1.60248575        3.12031666       -1.82473731
 C            1.44893756        1.92616921       -3.01283488
 C            0.38567183        2.90473124       -3.04025689
 C            1.74129581       -0.28110711       -4.01856355
 C            0.99063790       -1.41449024       -4.53513220
 C            1.19136609        0.99153492       -4.09355791
 C           -1.12574830       -2.21818755       -3.91150115
 C           -2.06676484       -1.48294933       -3.07996841
 C           -0.43375154       -1.26374742       -4.76123238
 C           -2.30476036        0.90904301       -2.62719415
 C           -1.83132629        2.19013608       -2.91326431
 C           -0.70576123        2.33713074       -3.81557064
 C           -0.20531857        1.15441183       -4.48647952
 C           -2.08417562       -0.11063560       -3.54574862
 C           -1.03176550        0.03886669       -4.54474399
