   70
C70 / DATE: 7/ 1/2024 / Origin: Program Fullerene / C70 from database
 C            1.50646565       -0.00570115        4.35414264
 C            2.65816050       -0.21828082        3.49055017
 C            2.44123043       -1.46306068        2.77530024
 C            0.64463965       -1.16961363        4.25109437
 C            1.26421603       -2.10955631        3.33531613
 C           -0.69545673       -0.70468731        3.95781562
 C            0.68219403        1.17456083        4.14849210
 C           -0.60642579        0.71568981        3.65960499
 C            1.25960872        2.28452647        3.55565757
 C            3.17966037        0.86811411        2.80348103
 C            2.63396357        2.18245176        3.08817293
 C            3.34840113        0.77112678        1.35953845
 C            2.63650222       -1.51613863        1.39841927
 C            2.83340407       -0.32927896        0.68878640
 C            2.14928350       -2.62671818        0.73024724
 C            0.45522529       -2.85994906        2.48502973
 C            1.02780027       -3.34922020        1.31430681
 C           -1.49571032       -1.49687098        3.15654525
 C           -0.92961692       -2.69552384        2.54793945
 C           -2.30790584       -0.85548168        2.14204432
 C           -1.09917561        1.20174713        2.44439925
 C           -1.95324547        0.40754403        1.67737588
 C            0.51560595        2.99594756        2.53091903
 C           -0.57638174        2.37904996        1.90868073
 C            2.74546333        2.97332328        1.87975261
 C            3.16835363        2.09485670        0.79930320
 C            1.49687130        3.69398670        1.71798600
 C            2.54658468        2.24584131       -0.43567452
 C            2.27416076       -0.16887500       -0.58712733
 C            2.12087774        1.10889125       -1.14462744
 C            1.92027101       -2.54476265       -0.69538811
 C            1.85227666       -1.29330852       -1.30052255
 C            0.18761306       -3.81288174        0.22111529
 C            0.92084678       -3.54560153       -1.01118624
 C           -1.75177908       -3.00114022        1.38750950
 C           -2.66342660       -1.88304083        1.18847176
 C           -1.19335520       -3.61453080        0.26960725
 C           -2.98222730       -1.51650145       -0.10815091
 C           -2.20924409        0.73876200        0.34468817
 C           -2.89060459       -0.17201198       -0.47548680
 C           -0.96013557        2.79768746        0.63045053
 C           -1.77004244        1.96934377       -0.16497728
 C            1.13443385        4.03659026        0.43172414
 C            1.90548486        3.46127272       -0.65553466
 C           -0.24475889        3.84135060        0.04209996
 C            1.10682265        3.63290212       -1.84218635
 C           -0.23931730        3.97652657       -1.39531477
 C            1.42221633        1.25583794       -2.35502934
 C            0.96953516        2.51623582       -2.74697553
 C            1.10623365       -1.14073913       -2.47042901
 C            0.86306004        0.13560395       -2.97854979
 C            0.22420130       -3.42905599       -2.19908113
 C            0.43260514       -2.24075275       -3.01078045
 C           -1.91051965       -3.55949732       -0.92335751
 C           -2.89292451       -2.49921054       -1.08951372
 C           -1.19933756       -3.69596905       -2.18097880
 C           -0.78007278       -2.03330920       -3.78311695
 C           -2.92554555       -2.12727411       -2.49261383
 C           -1.82849320       -2.81915682       -3.15226206
 C           -3.23871171        0.19109299       -1.76893590
 C           -3.17241087       -0.80471286       -2.83047023
 C           -2.02689440        2.31281604       -1.50384605
 C           -1.14978068        3.16751040       -2.16474069
 C           -0.37398204        2.63375537       -3.26968017
 C           -2.76428101        1.44950303       -2.30729932
 C           -0.13789563        0.31712162       -3.94048873
 C           -1.08479528       -0.75131361       -4.20799214
 C           -2.41074992       -0.22461349       -3.92119081
 C           -0.89845114        1.55504209       -3.95122879
 C           -2.27061788        1.19172860       -3.65183011
