   70
C70 / DATE: 7/ 1/2024 / Origin: Program Fullerene / C70 from database
 C            1.38223879       -0.18002757        4.14773520
 C            2.49632699       -0.46606861        3.26171837
 C            2.38824244       -1.85941464        2.84911391
 C            0.51788151       -1.34339211        4.16990382
 C            1.21473421       -2.42823650        3.50731239
 C           -0.78163173       -0.94370802        3.65849199
 C            0.55690551        0.97611052        3.86713518
 C           -0.75879688        0.49415791        3.47128201
 C            1.11939316        2.01759019        3.14865051
 C            2.88613767        0.49642282        2.33391377
 C            2.36181902        1.78635709        2.42155341
 C            3.49390499        0.08381779        1.15461227
 C            2.70697507       -2.21893376        1.53573140
 C            3.33984912       -1.29332018        0.71187907
 C            2.06796710       -3.30419542        0.93859247
 C            0.45374037       -3.36957231        2.83346884
 C            1.02443783       -4.00263887        1.66358540
 C           -1.39443493       -1.74135215        2.70117966
 C           -0.93230894       -3.04819168        2.51960454
 C           -2.19248233       -1.14685869        1.72119784
 C           -1.37508697        1.05046150        2.35337056
 C           -2.10043126        0.23021092        1.47837720
 C            0.26132778        2.81033870        2.29030095
 C           -1.00035075        2.33408672        1.95274741
 C            2.35432142        2.65341519        1.25040199
 C            1.09482702        3.38580405        1.25062479
 C            3.45190367        0.93384523       -0.02481510
 C            2.88506231        2.20510695        0.04321239
 C            3.00853854       -1.26921584       -0.70482920
 C            3.15357019        0.08856376       -1.17216017
 C            1.65376397       -3.20281719       -0.45535681
 C            1.95487907       -2.04400285       -1.16479160
 C           -0.05638235       -4.28250022        0.73537235
 C           -1.29001094       -3.78389000        1.31833015
 C            0.33751825       -3.79735835       -0.57744859
 C           -2.83280045       -1.96452578        0.79787986
 C           -2.24174674       -3.24854921        0.46648513
 C           -3.32713281       -1.39484587       -0.44194772
 C           -2.74999077        0.79788378        0.37256172
 C           -3.30728412       -0.01549192       -0.61976280
 C           -1.65565733        2.93108110        0.88769703
 C           -2.64149731        2.16799086        0.14938566
 C            0.51253814        3.73808175        0.03761243
 C           -0.88054733        3.70641160       -0.07111767
 C            2.44527543        2.79351956       -1.14035978
 C            1.30265057        3.69236741       -1.10700773
 C            2.30352283        0.57604046       -2.15127565
 C            2.28975214        1.95463724       -2.31663753
 C            0.99263089       -1.47456043       -2.01014514
 C            1.18939009       -0.18536582       -2.54332914
 C           -0.61220215       -3.16307433       -1.36351443
 C           -1.94325187       -3.19714466       -0.95236588
 C           -2.87934954       -2.25713934       -1.53047803
 C           -0.20395315       -2.16400276       -2.24743592
 C           -2.55233391       -1.67311234       -2.74241086
 C           -1.14616186       -1.63485265       -3.12128028
 C           -3.46908160        0.48174701       -1.91447301
 C           -3.11614504       -0.37185633       -3.03284996
 C           -2.66476008        2.68045999       -1.20997873
 C           -1.52606711        3.57309398       -1.37022197
 C           -3.02414131        1.82553225       -2.24151695
 C            0.68327100        3.65513686       -2.42025869
 C            1.29434088        2.56314431       -3.16473118
 C           -0.75565204        3.50831132       -2.52352330
 C            0.25350519        0.35742134       -3.43997728
 C           -0.89067079       -0.36243502       -3.76335685
 C           -2.15692378        0.34809583       -3.84534500
 C           -2.19509349        1.74149613       -3.43877464
 C            0.23277978        1.73147753       -3.67815340
 C           -1.01156129        2.46243181       -3.49939062
