   70
C70 / DATE: 7/ 1/2024 / Origin: Program Fullerene / C70 from database
 C            1.20591053       -0.01114378        4.47694000
 C            2.48908408       -0.24997885        3.85989103
 C            2.53190001       -1.65660334        3.51834186
 C            0.38554343       -1.20119937        4.27013258
 C            1.16000373       -2.12604566        3.48151374
 C           -0.88930947       -0.75092076        3.75840703
 C            0.41725107        1.11218787        4.01836426
 C           -0.95420017        0.66034171        4.07905975
 C            0.81821194        1.83798947        2.89498398
 C            2.82436198        0.48710062        2.65877529
 C            1.92145163        1.40592182        2.14027806
 C            3.31154690       -1.78444510        2.30707517
 C            3.46524960       -0.44285226        1.74625583
 C            2.96243187       -2.80707564        1.44304065
 C            0.65858143       -2.58930184        2.26781037
 C            1.56301137       -3.22645531        1.42062315
 C           -1.31602860       -1.16537922        2.49529643
 C           -0.50734994       -2.01745304        1.72534870
 C           -2.33692355       -0.43030174        1.87864871
 C           -1.90085294        1.41846735        3.42680732
 C           -2.78430321        0.73833921        2.50289765
 C           -0.12484339        2.68591051        2.30295367
 C           -1.45400914        2.61059083        2.72707097
 C            0.18055121        3.30702223        1.09165451
 C            1.99979152        1.71839167        0.78734749
 C            1.31482994        2.82568965        0.32532919
 C            3.32068636       -0.26260078        0.36576264
 C            2.53276483        0.79300922       -0.11744705
 C            3.39265115       -2.68562818        0.06997536
 C            3.58038580       -1.34886690       -0.46167474
 C            1.19886176       -3.47935317        0.04289946
 C            2.39778863       -3.34354493       -0.75247618
 C           -0.85653896       -2.27087554        0.39316101
 C            0.02885465       -2.93626098       -0.46189553
 C           -2.67285470       -0.68202055        0.54081389
 C           -2.03261267       -1.73240598       -0.13085290
 C           -3.47751340        0.23221556       -0.16873185
 C           -3.38531686        1.78356355        1.70757488
 C           -2.52547657        2.95465862        1.80993011
 C           -3.60888403        1.52536267        0.31088082
 C           -0.87768001        3.65268720        0.14923986
 C           -2.19676200        3.38479161        0.46468286
 C           -2.99625952        2.59680689       -0.45638259
 C            0.98560582        2.92127459       -1.07898533
 C           -0.40062044        3.35029513       -1.18544051
 C            2.20563144        0.87243143       -1.48671932
 C            1.45385902        1.96217268       -1.96711314
 C            3.05439728       -1.35748412       -1.80681297
 C            2.29839643       -2.59106870       -1.98270755
 C            2.52163820       -0.19504778       -2.34640385
 C           -0.08666074       -2.76294306       -1.84341909
 C            1.05971218       -2.49348042       -2.60527050
 C           -2.38131907       -2.04143157       -1.44485451
 C           -1.34329806       -2.47886325       -2.36205788
 C           -3.60323004        0.10400222       -1.54261782
 C           -3.25161431       -1.14491866       -2.16911384
 C           -2.51332452        2.28932434       -1.72952517
 C           -1.23264242        2.72017850       -2.11158399
 C           -3.09281153        1.18926610       -2.36704465
 C            0.79542985        1.87345344       -3.19119881
 C           -0.62588414        2.18384245       -3.24609983
 C            1.78985599       -0.36435121       -3.51675964
 C            0.97770074       -1.56332205       -3.63484247
 C            1.03623900        0.74138316       -4.05062680
 C           -1.46191978       -1.69366510       -3.58139650
 C           -2.62880657       -0.84043590       -3.44628342
 C           -2.47361562        0.60419311       -3.53950871
 C           -1.28125053        1.13242599       -4.00570512
 C           -0.31477869       -1.18151190       -4.16849379
 C           -0.25067578        0.23394518       -4.49972222
