   70
C70 / DATE: 7/ 1/2024 / Origin: Program Fullerene / C70 from database
 C            1.37333834        0.15336989        5.18773823
 C            0.58107084       -1.05730181        5.09865015
 C            1.39663430       -2.07020402        4.45484782
 C            2.58376941       -0.05425363        4.40827016
 C            2.59451060       -1.42226201        3.94415048
 C            2.64441220        0.99464048        3.41738452
 C            0.61875032        1.22335450        4.55442200
 C            1.48854752        1.85901430        3.59610051
 C           -0.69658489       -0.70986098        4.49907717
 C           -0.62423510        0.67673315        4.06310764
 C           -1.31646046       -1.62945921        3.66585209
 C            0.81398381       -2.83193155        3.36767655
 C           -0.55926368       -2.77317797        3.16493694
 C            2.65873221       -1.66946005        2.51158559
 C            1.69003738       -2.70548473        2.21140153
 C            3.01774053        0.69367860        2.11005238
 C            2.80062248       -0.60471166        1.61962704
 C            2.92281908        1.75156067        1.22019440
 C            0.93645385        2.40542568        2.44372302
 C            1.84904856        2.70620158        1.44673389
 C           -1.02842077        1.00525240        2.76862171
 C           -0.35359109        2.01057384        2.05282823
 C           -2.11697548       -1.13313126        2.56061114
 C           -1.91978259        0.16128729        2.09968232
 C           -1.06480890       -3.06986195        1.83927246
 C           -2.20310728       -2.20131111        1.59097703
 C            1.12730214       -2.74825502        0.94038929
 C           -0.16189360       -3.26617042        0.80140893
 C            2.39552882       -0.78913490        0.28762850
 C            1.63834733       -1.91288830       -0.06119012
 C            2.95092102        1.48994475       -0.19947575
 C            2.61255990        0.22040443       -0.65287663
 C            1.36845229        3.13055485        0.15420468
 C            2.32595608        2.64236163       -0.81704799
 C           -0.82414754        2.35583550        0.77618022
 C            0.01579128        3.01560108       -0.13398609
 C           -2.29817973        0.47060316        0.79862120
 C           -1.97546934        1.72723797        0.30286809
 C           -2.49306519       -1.88754990        0.26839196
 C           -2.68036305       -0.54904765       -0.08751170
 C           -0.69591951       -3.35396054       -0.47295930
 C           -2.00211542       -2.75446109       -0.69571245
 C            1.16377142       -2.05615331       -1.36705239
 C            0.12662580       -2.95566283       -1.59325845
 C            2.11816523        0.08688273       -1.95408759
 C            1.43871282       -1.07627306       -2.32621192
 C            1.90901148        2.52474962       -2.12577182
 C            2.03372849        1.22695779       -2.75876304
 C           -0.37955835        3.13781949       -1.46807108
 C            0.58620190        3.01369180       -2.47205368
 C           -2.52219214        2.12608688       -0.90722394
 C           -1.72140025        2.95733651       -1.78240964
 C           -2.94704310       -0.22402197       -1.42367828
 C           -3.15919536        1.11939420       -1.73394552
 C           -2.06461065       -2.36590771       -2.08785639
 C           -0.78829017       -2.72425008       -2.69079267
 C           -2.65520393       -1.15532879       -2.43701646
 C            0.84081864       -1.16075450       -3.59097062
 C           -0.34509286       -1.98391987       -3.77041633
 C            1.14442568        1.24423004       -3.90505850
 C            0.24524978        2.38473686       -3.73805902
 C            0.66344945        0.04065058       -4.39195659
 C           -2.11170725        2.65928043       -3.15168666
 C           -3.08685289        1.58104861       -3.10612077
 C           -1.08931279        2.29257841       -4.11359728
 C           -2.50418869       -0.74415262       -3.76215463
 C           -1.32601354       -1.18826728       -4.48641372
 C           -0.65537892       -0.00875993       -4.99808824
 C           -2.74784755        0.63188846       -4.13972998
 C           -1.55721888        1.11636357       -4.82401261
