   70
C70 / DATE: 7/ 1/2024 / Origin: Program Fullerene / C70 from database
 C            1.21897023        0.07398028        4.40118364
 C            2.53135498       -0.17129752        3.84690737
 C            2.59033439       -1.57353936        3.48043289
 C            0.41396604       -1.11932544        4.18917763
 C            1.23425136       -2.09245626        3.50040614
 C           -0.83094196       -0.70878348        3.57680467
 C            0.46659144        1.20073518        3.89360142
 C           -0.86932215        0.74105349        3.55723822
 C            1.07373007        2.09820458        3.02584415
 C            2.94944924        0.60350013        2.69194714
 C            2.16392727        1.66474272        2.25311282
 C            3.33876500       -1.67532055        2.24462125
 C            3.48077197       -0.32469812        1.70709540
 C            3.00232605       -2.69867564        1.37338171
 C            0.74358175       -2.71109955        2.35212819
 C            1.66125888       -3.26706637        1.46156686
 C           -1.29464186       -1.38329708        2.46395498
 C           -0.55783903       -2.43825834        1.90946843
 C           -2.25018584       -0.74873420        1.68473033
 C           -1.54467818        1.39771082        2.52314322
 C           -2.18046082        0.63871839        1.52827704
 C            0.23957083        3.07275764        2.49751339
 C           -1.14528638        2.69912708        2.23586678
 C            0.70673718        3.84473011        1.36824589
 C            2.24329099        2.02764075        0.90710960
 C            1.69404665        3.23573256        0.50488624
 C            3.24533176       -0.09454525        0.34776888
 C            2.55927086        1.05951057       -0.04840411
 C            3.29995810       -2.51339572       -0.03011080
 C            3.36902742       -1.15745927       -0.54281532
 C            1.23350317       -3.61382285        0.11773102
 C            2.29141121       -3.22463172       -0.79297136
 C           -1.01075810       -3.00797758        0.71656395
 C           -0.07897068       -3.36646306       -0.26104706
 C           -2.93953134       -1.51341084        0.76186100
 C           -2.32668723       -2.75771012        0.33082204
 C           -3.49613774       -0.86645492       -0.40642770
 C           -2.49966932        1.21448847        0.28458172
 C           -3.08068018        0.42678894       -0.71970790
 C           -1.54339829        3.31382611        0.98782208
 C           -0.45011019        4.16788936        0.55873737
 C           -2.20734840        2.55828812        0.02818757
 C            1.23413493        3.38772588       -0.86295142
 C           -0.04178136        4.09860351       -0.82689979
 C            2.03858178        1.15991753       -1.34818373
 C            1.41270198        2.34073373       -1.76836552
 C            2.63157351       -1.13107628       -1.79025159
 C            1.93977382       -2.40075874       -1.93168973
 C            1.95356671        0.02181090       -2.15477579
 C           -0.34151627       -3.06993179       -1.60130694
 C            0.61486621       -2.37363977       -2.34892745
 C           -2.71092449       -2.97741749       -1.05075307
 C           -3.57372612       -1.87594248       -1.44606849
 C           -1.65994128       -3.09370025       -2.04112344
 C           -3.21852599       -1.50590276       -2.79597734
 C           -2.03859602       -2.27120096       -3.17542852
 C           -3.02923419        0.83855518       -2.05976187
 C           -2.93138157       -0.11491921       -3.07431006
 C           -2.17165861        3.00705666       -1.29011312
 C           -1.00789448        3.75550046       -1.75644323
 C           -2.58648961        2.12128600       -2.35964723
 C            0.64801308        2.33179635       -2.93714716
 C           -0.56259445        3.13049051       -2.98151805
 C           -1.63751498        2.27990238       -3.44981876
 C            0.90165883       -0.09389859       -3.05887713
 C            0.20595839       -1.30441945       -3.14462264
 C           -1.06487557       -1.33511487       -3.70898847
 C           -1.76752628       -0.08904410       -3.94271923
 C            0.35620123        1.06693134       -3.59134209
 C           -1.03762836        1.08565423       -4.01322490
