   70
C70 / DATE: 7/ 1/2024 / Origin: Program Fullerene / C70 from database
 C            1.70426905       -0.15446834        4.88648462
 C            0.86139569       -1.33480659        4.86842684
 C            1.35756703       -2.22465287        3.83017521
 C            2.61779262       -0.25072694        3.76304653
 C            2.38134584       -1.50947751        3.08402959
 C            2.49330802        0.96498538        2.98825407
 C            0.85348207        1.00204956        4.66236991
 C            1.34807710        1.70419630        3.48862763
 C           -0.52405423       -0.89638068        4.81619260
 C           -0.52539295        0.55421805        4.67506486
 C           -1.43919027       -1.66423452        4.10277684
 C            0.44816858       -3.01070592        3.13917203
 C           -0.97155257       -2.86236164        3.42467961
 C            0.59376637       -3.16546561        1.70199774
 C            2.34698904       -1.50523953        1.69005195
 C            1.56224709       -2.43805115        1.00989470
 C            2.64197116        0.88760458        1.61603776
 C            2.78224093       -0.36397362        1.00802052
 C            2.10157243        1.91663779        0.86379663
 C            0.43691428        2.22480117        2.56431279
 C            0.85448663        2.41890823        1.23923156
 C           -1.41882113        1.16116566        3.80414773
 C           -0.92564274        2.13845330        2.84118825
 C           -2.41173831       -1.01707685        3.23378430
 C           -2.44019355        0.36595132        3.13949991
 C           -1.69559579       -2.97864693        2.17091817
 C           -0.73498531       -3.26000572        1.12591930
 C           -2.53763145       -1.81018926        2.02045692
 C           -0.92861691       -2.69506894       -0.12462564
 C            1.41828620       -2.29930711       -0.37002555
 C            0.17672941       -2.57862041       -0.95089748
 C            2.88773003       -0.40653534       -0.38489730
 C            2.31912047       -1.48936352       -1.05925744
 C            2.51051362        2.00558019       -0.45248424
 C            3.05278774        0.80535954       -1.05765667
 C            1.64770557        2.63955723       -1.42633416
 C           -0.08428022        2.75094022        0.24870361
 C            0.34197920        2.96138195       -1.07308993
 C           -1.87138203        2.16547588        1.74741694
 C           -2.70085689        0.98079272        1.85044680
 C           -1.44368152        2.52556631        0.48315502
 C           -2.57005682       -1.17441710        0.78038262
 C           -1.98461647       -1.80594390       -0.32451442
 C           -2.85590596        0.19119784        0.71191483
 C           -2.11156252       -1.21705750       -1.58363533
 C           -0.03850452       -2.23981965       -2.27978431
 C           -1.25361181       -1.62870719       -2.61088324
 C            2.26838915       -1.49282309       -2.45216424
 C            1.08337057       -2.04314830       -3.07755954
 C            2.80822025        0.88521910       -2.48381508
 C            1.91421289        2.01406602       -2.71455548
 C            2.61538499       -0.28837748       -3.18953691
 C            0.88828132        1.91081823       -3.65141528
 C           -0.60991707        3.08590549       -2.08850188
 C           -0.28918028        2.62740327       -3.43467314
 C           -2.22855583        2.10990386       -0.57967345
 C           -2.77375511        0.82274828       -0.52787063
 C           -2.73276509        0.02866899       -1.67061462
 C           -1.97743876        2.68759238       -1.81074167
 C           -1.53365994        2.20189514       -4.05600109
 C           -2.85977042        0.64879904       -2.90989311
 C           -2.51410948        2.05248108       -2.99757633
 C           -1.48128943       -1.17068795       -3.90750048
 C           -2.32299421       -0.00502119       -4.08925840
 C           -1.55430823        0.98288973       -4.83607935
 C            0.95026244       -1.43210008       -4.38325536
 C            1.79841622       -0.25057589       -4.38917644
 C            0.93652979        0.89661709       -4.61329254
 C           -0.36742552       -1.03009549       -4.82657975
 C           -0.29047046        0.37430292       -5.19275788
