   70
C70 / DATE: 7/ 1/2024 / Origin: Program Fullerene / C70 from database
 C            1.28478189       -0.06897444        4.88953039
 C            2.48718026       -0.18383613        4.09120767
 C            2.53116615       -1.53329134        3.55228903
 C            0.46816668       -1.24432353        4.62938748
 C            1.25176617       -2.16309679        3.82005493
 C           -0.81707224       -0.78561998        4.12336247
 C            0.44463136        1.09403689        4.70081876
 C           -0.90285681        0.62710165        4.40679906
 C            0.78513498        2.04993823        3.66195281
 C            2.69542938        0.73724502        2.98344352
 C            1.76426223        1.73632595        2.71485736
 C            2.99467694       -1.44138852        2.17764228
 C            3.22239532       -0.03809843        1.88218967
 C            2.40522664       -2.23309385        1.19210280
 C            0.61868889       -2.83694403        2.78658808
 C            1.32302472       -3.04555023        1.52983895
 C           -1.26573731       -1.26599991        2.89594141
 C           -0.74728216       -2.47376262        2.44422046
 C           -1.91448525       -0.41248248        1.98836053
 C           -1.44250442        1.50200043        3.38901647
 C           -0.48262554        2.57542537        3.20426680
 C           -2.04490789        0.95633165        2.25758392
 C           -0.51104725        3.25381325        2.00283411
 C            1.62976801        2.21421875        1.40567081
 C            0.65642514        3.17561516        1.13869065
 C            2.99657118        0.38398398        0.58335042
 C            2.23557752        1.53239205        0.33992143
 C            2.56152312       -1.84947750       -0.14241177
 C            3.07240918       -0.57560646       -0.41264415
 C            1.82941945       -2.51501831       -1.12945310
 C            0.30624505       -3.31830163        0.52862594
 C           -0.96383432       -2.87404720        1.07210410
 C            0.57597467       -3.03417455       -0.80304101
 C           -2.28973684       -0.89388599        0.72815729
 C           -1.78395334       -2.11186339        0.25903162
 C           -2.96616392       -0.05301752       -0.16136851
 C           -2.33342412        1.82428027        1.20487247
 C           -1.65252415        3.04228155        1.13946722
 C           -2.93543444        1.33292800        0.04670226
 C            0.18518099        3.36001132       -0.22580164
 C           -1.25481252        3.55232856       -0.15399143
 C            1.87932673        1.83941499       -0.98376323
 C            0.71614961        2.56649958       -1.23684931
 C            3.13167433       -0.12699124       -1.72050244
 C            2.46321005        1.12408259       -2.02814454
 C            2.13444607       -2.27295584       -2.46577708
 C            2.85871584       -1.06137098       -2.79182370
 C            1.09606283       -2.43888736       -3.46681941
 C           -0.50406730       -2.79293755       -1.65576834
 C           -1.70835283       -2.32971862       -1.11236355
 C           -0.26566455       -2.67254480       -3.02039735
 C           -3.37305691       -0.57851185       -1.39110262
 C           -2.66251342       -1.72768641       -1.92261405
 C           -3.66392920        0.30338245       -2.50378701
 C           -3.06335934        2.21153260       -1.03319211
 C           -2.02394001        3.19871017       -1.24348550
 C           -3.41815031        1.71587693       -2.34596160
 C           -0.05889416        2.28115516       -2.36911740
 C           -1.34787469        2.79713578       -2.45909907
 C           -2.33213873        2.08704595       -3.24658191
 C            1.70716386        0.92676205       -3.25299551
 C            2.10941541       -0.35110599       -3.81256454
 C            1.08615189       -1.24511616       -4.30147300
 C            0.36791576        1.31102478       -3.28172386
 C           -1.12500302       -1.82272793       -3.82146205
 C           -2.37190476       -1.47392455       -3.32605485
 C           -2.87941275       -0.14927737       -3.63843905
 C           -1.91989999        0.89561269       -3.95545905
 C           -0.27836484       -0.76624975       -4.34801609
 C           -0.57092897        0.55336743       -4.00683329
