   70
C70 / DATE: 7/ 1/2024 / Origin: Program Fullerene / C70 from database
 C            1.21666840       -0.07532442        4.49245392
 C            2.56776145       -0.32933051        4.03288333
 C            2.61513650       -1.69783030        3.55313668
 C            0.40889109       -1.24670390        4.17769770
 C            1.25174359       -2.20210249        3.50137500
 C           -0.78671568       -0.79415775        3.50931277
 C            0.51339349        1.09296641        3.99418031
 C           -0.79784395        0.65504467        3.55963715
 C            1.19169766        2.03294806        3.23126696
 C            3.13107200        0.52122401        2.99930354
 C            2.51680018        1.73021428        2.69970798
 C            3.39733737       -1.71543478        2.32933662
 C            3.56578029       -0.33268698        1.90533365
 C            3.06809173       -2.66245570        1.37496445
 C            0.81782281       -2.79315983        2.31796782
 C            1.80615925       -3.36666532        1.52540134
 C           -1.20255059       -1.41291524        2.33214204
 C           -0.39959479       -2.39314102        1.72647477
 C           -2.16437129       -0.75018837        1.56772283
 C           -1.44540418        1.31862230        2.52874529
 C           -2.40592810        0.60533247        1.82899681
 C            0.46255842        2.76604423        2.20917791
 C           -0.84366801        2.41228036        1.89394109
 C            2.55689032        2.21702791        1.33278886
 C            1.37956166        3.04498497        1.12445497
 C            3.26707446        0.03609693        0.59066041
 C            2.97937097        1.37435968        0.30657765
 C            3.14564770       -2.29230644       -0.02276201
 C            3.02197576       -0.95220624       -0.37168656
 C            1.46217852       -3.89242033        0.22900843
 C            2.36133496       -3.27533533       -0.73939335
 C           -0.76791342       -2.89259868        0.46460882
 C            0.11777678       -3.69521014       -0.25733367
 C           -2.61114729       -1.32638862        0.37818075
 C           -1.86209964       -2.34327904       -0.21469170
 C           -3.63478957       -0.71117916       -0.34407702
 C           -3.24900588        1.33075239        1.00647972
 C           -4.03566953        0.63160368        0.01790685
 C           -1.37909397        2.85823998        0.68115397
 C           -2.70496754        2.52816068        0.39711141
 C            0.87415430        3.16842003       -0.16391929
 C           -0.51081100        3.22977334       -0.35720584
 C            2.68849262        1.74673433       -1.00030535
 C            1.69285793        2.78226381       -1.22239616
 C            2.43853310       -0.60848863       -1.59499117
 C            2.47363112        0.71647763       -1.99938990
 C            1.54563495       -2.83797074       -1.85435477
 C            0.25389769       -3.47449353       -1.68234508
 C            1.58193563       -1.50187299       -2.24976281
 C           -1.99868133       -2.58762791       -1.58451446
 C           -0.82387364       -2.94004196       -2.35616987
 C           -3.63416628       -0.78626534       -1.79439846
 C           -2.76637782       -1.67159383       -2.41120950
 C           -4.05566665        1.44184651       -1.18830274
 C           -3.21116019        2.60586194       -0.96121264
 C           -3.77973509        0.56577843       -2.31428696
 C           -0.99999594        3.40140548       -1.65386692
 C           -2.37275608        3.04598403       -1.97278389
 C            1.11584581        2.55786243       -2.53310148
 C            1.47510061        1.20364994       -2.93453799
 C           -0.16701122        3.01750771       -2.78363086
 C            0.53362549       -1.01399778       -3.03912035
 C           -0.58755895       -1.81948776       -3.24546543
 C           -1.88075355       -1.20189127       -3.46961251
 C            0.48899182        0.33640960       -3.39859942
 C           -2.94274782        1.01116399       -3.33157370
 C           -2.36877051        2.34522163       -3.24710583
 C           -0.99394587        2.26886572       -3.70955893
 C           -1.92242060        0.12429344       -3.86924676
 C           -0.67823047        0.87132934       -3.94717844
