   70
C70 / DATE: 7/ 1/2024 / Origin: Program Fullerene / C70 from database
 C            1.50230894       -0.09081768        4.87940207
 C            0.71047348       -1.24122310        4.49936771
 C            1.33180461       -1.86759246        3.34116968
 C            2.67108066       -0.06975718        4.02512061
 C            2.53814764       -1.12787761        3.03598094
 C            2.81279757        1.28555008        3.54168489
 C            0.71750674        1.09443393        4.56843675
 C            1.49711453        1.90572725        3.66137472
 C           -0.65687983       -0.78548420        4.36415200
 C           -0.59121562        0.65064389        4.14285170
 C           -1.47869963       -1.51904703        3.53036811
 C            0.50237296       -2.28598105        2.30586231
 C           -0.84657390       -2.44295077        2.60017136
 C            0.88673996       -2.08074951        0.97227921
 C            2.83588570       -0.82618924        1.71266730
 C            2.06030767       -1.37129299        0.68170975
 C            3.49554046        1.45963986        2.35242485
 C            3.60304075        0.31024908        1.45948225
 C            3.11435502        2.58796284        1.52959025
 C            0.89265552        2.43586419        2.51937532
 C            1.72686081        3.01185072        1.56396057
 C           -1.14886209        1.16908593        2.97460671
 C           -0.38722797        2.00368435        2.13660296
 C           -2.48363279       -0.81084169        2.76137646
 C           -2.27844591        0.53084003        2.45939402
 C           -1.77746057       -2.64985433        1.52061016
 C           -2.87847681       -1.71557828        1.70124668
 C            0.00906929       -2.43509952       -0.06891535
 C           -1.29772405       -2.84593254        0.23694712
 C            0.38039211       -2.20777906       -1.40655606
 C            2.35557925       -1.04112784       -0.64244094
 C            1.62959891       -1.62743950       -1.68319268
 C            3.68839172        0.81946097        0.10866774
 C            3.43592908        2.24654045        0.16118448
 C            3.08914925        0.11672196       -0.92241832
 C            1.27453899        3.13731426        0.18766919
 C            2.37800871        2.76736082       -0.68322623
 C           -0.88373193        2.35090273        0.87260444
 C           -0.00676541        2.71650582       -0.14749616
 C           -2.90606476        1.06152436        1.34152863
 C           -2.19691540        2.04565448        0.54702994
 C           -3.49290758       -1.21057588        0.56205055
 C           -3.61536988        0.17654324        0.42527232
 C           -2.25792225       -2.84868323       -0.75990914
 C           -3.42980027       -2.00240796       -0.58014334
 C           -0.53001125       -2.48116105       -2.44793696
 C           -1.85326897       -2.76615061       -2.13939797
 C           -0.27367492       -2.03238563       -3.74238074
 C            1.94283090       -1.22627688       -2.98489009
 C            1.03454477       -1.52350004       -4.06929595
 C            2.73302985        0.84765118       -2.04492435
 C            2.07445532        2.06140876       -1.83723652
 C            2.42623333        0.12871436       -3.18388546
 C           -0.27490555        2.33885956       -1.47146428
 C            0.79423132        2.20489216       -2.36334463
 C           -2.54705909        1.83451698       -0.84705046
 C           -3.56246382        0.79707179       -0.89388358
 C           -1.54620921        1.86130162       -1.81516229
 C           -3.76237913       -1.42819752       -1.86623073
 C           -2.89666326       -2.04925003       -2.85149034
 C           -3.66527823        0.00784968       -2.02884972
 C           -1.26052297       -1.18150227       -4.40258343
 C           -1.75341867        1.20881412       -3.03569390
 C           -2.48975268       -1.02319956       -3.78588802
 C           -2.77461224        0.25962699       -3.15060594
 C            0.84723093       -0.30396467       -4.84073576
 C            1.54844908        0.75544012       -4.14847022
 C            0.57310341        1.70108771       -3.63809342
 C           -0.56480182        0.01859304       -4.80703771
 C           -0.74406077        1.20998158       -3.99339307
