   70
C70 / DATE: 7/ 1/2024 / Origin: Program Fullerene / C70 from database
 C            1.36095777       -0.38001846        5.45021452
 C            0.54089256       -1.53511414        5.13208563
 C            1.18884242       -2.25628526        4.05179532
 C            2.51323634       -0.39580929        4.56488316
 C            2.34017739       -1.48781194        3.62350754
 C            2.66645154        0.94317373        4.04130901
 C            0.59394735        0.81156005        5.12831344
 C            1.46975189        1.69597928        4.39260990
 C           -0.72594170       -1.05174332        4.61394392
 C           -0.64566956        0.39051112        4.50006101
 C            0.17375363       -2.55601469        3.05866621
 C           -1.01908918       -1.80566653        3.40887389
 C            0.54117301       -2.56426169        1.71769050
 C            2.48676924       -1.25388956        2.25728949
 C            1.80631934       -2.08855039        1.36558345
 C            2.86610740        1.10458599        2.61439962
 C            2.93926407       -0.01266610        1.79234649
 C            0.97168754        2.29629423        3.17051655
 C            2.02124929        2.19560620        2.17998168
 C           -1.03961891        0.96447038        3.29252945
 C           -0.32811936        2.04272264        2.75150088
 C           -1.68593013       -1.16334528        2.37152038
 C           -1.86376307        0.22018242        2.44301810
 C           -0.47486017       -2.46545210        0.76914851
 C           -1.62265891       -1.74349136        1.10610757
 C           -0.12871704       -2.60813823       -0.57149476
 C            2.11001697       -1.99135192        0.01029770
 C            1.22842849       -2.57079680       -0.90061488
 C            2.89146613        0.20973466        0.42151321
 C            2.87452175       -0.90217642       -0.40484121
 C            1.64917966        2.22908854        0.84071675
 C            2.31327188        1.39404293       -0.05408138
 C           -0.66565945        2.44738555        1.46573704
 C            0.35352885        2.62682365        0.52121830
 C           -2.42431463        0.86113543        1.34142923
 C           -1.93117928        2.12104198        1.00593045
 C           -2.39597849       -1.18193722        0.09408672
 C           -2.96904152        0.06976147        0.33161843
 C           -1.09244943       -2.36247060       -1.55122629
 C           -2.23855266       -1.64143275       -1.21477744
 C           -0.77486903       -2.55994008       -2.89345161
 C            1.62256926       -2.65423165       -2.23076540
 C            0.61197333       -2.75236465       -3.26454746
 C            3.05158744       -0.68595036       -1.76339510
 C            2.62890108       -1.71921794       -2.68816886
 C            1.99978255        1.48951509       -1.41207794
 C            2.60770172        0.59056001       -2.29147272
 C            0.00616870        2.74361958       -0.82681228
 C            0.83349927        2.16406468       -1.79847843
 C           -2.34770823        2.71076980       -0.17834489
 C           -1.31796307        3.06019132       -1.13901979
 C           -3.70456305        0.69710379       -0.66693033
 C           -3.44361774        2.10108893       -0.90550122
 C           -3.04897541       -1.12927142       -2.22586971
 C           -3.84414764        0.05103588       -1.95641760
 C           -1.36905769       -1.69772180       -3.89918719
 C           -2.50766387       -0.98140845       -3.56494185
 C            0.93254613       -1.77888396       -4.29973489
 C            2.12667906       -1.06863186       -3.88488227
 C            2.04416023        0.35624878       -3.61146207
 C           -0.27437243       -1.02179942       -4.57762405
 C            0.40606038        2.10385346       -3.12545277
 C            0.91809847        1.06646710       -4.00114040
 C           -0.22677159        0.36994159       -4.57991252
 C           -1.84286512        2.80161313       -2.47036029
 C           -3.18980352        2.27604644       -2.32415573
 C           -3.53978980        1.03472894       -2.98682891
 C           -2.58522904        0.43198966       -3.89927731
 C           -1.00064670        2.27357319       -3.43787399
 C           -1.42113469        1.12133399       -4.22932053
