   70
C70 / DATE: 7/ 1/2024 / Origin: Program Fullerene / C70 from database
 C            1.38438662       -0.02557612        4.96696367
 C            0.59973378       -1.21609172        4.68628017
 C            1.43623518       -2.12736950        3.94428323
 C            2.60924823       -0.11266857        4.19027982
 C            2.68707902       -1.44297424        3.64054063
 C            2.63143323        1.00605016        3.27240950
 C            0.63352684        1.12103194        4.48368024
 C            1.44402411        1.81411264        3.51129869
 C           -0.64982519       -0.79166083        4.08853018
 C           -0.66417584        0.65694659        4.06014584
 C           -1.16136603       -1.45807442        2.97524377
 C            0.92725747       -2.67260362        2.70079611
 C           -0.36298166       -2.37744405        2.27109026
 C            2.92408626       -1.58637533        2.21713407
 C            1.99623122       -2.58935608        1.73258731
 C            3.04959227        0.82895061        1.95385348
 C            3.16327952       -0.46589825        1.41315824
 C            2.81408855        1.89662528        1.09733167
 C            0.82263725        2.40166916        2.41195078
 C            1.63802531        2.71889789        1.33273375
 C           -1.25948843        1.25283909        2.95945573
 C           -0.54513533        2.18117456        2.18414388
 C           -2.21413749       -0.83840424        2.29760600
 C           -2.30117780        0.55791645        2.35599730
 C           -2.80393317       -1.52748442        1.24403566
 C           -0.68232099       -2.67070631        0.94317154
 C           -1.99405342       -2.49359364        0.53137946
 C            1.66833661       -2.54909296        0.38924323
 C            0.34144004       -2.73612531       -0.01149806
 C            3.07884802       -0.64806844        0.02382469
 C            2.51251649       -1.84098250       -0.44906676
 C            2.95197636        1.71865929       -0.32944663
 C            3.20737398        0.45388522       -0.83279495
 C            1.04391355        3.02652572        0.04654276
 C            1.94232568        2.53794434       -0.98174800
 C           -1.12909946        2.63370091        0.99318564
 C           -0.32118938        2.87161599       -0.12628685
 C           -3.08495224        1.25346328        1.44681744
 C           -2.49420378        2.41701574        0.81621904
 C           -3.62490472       -0.82184875        0.27582519
 C           -3.84158379        0.53549983        0.43838546
 C           -2.29527780       -2.37964563       -0.88080467
 C           -3.31698331       -1.35608650       -1.04363845
 C            0.04393623       -2.67247566       -1.38229313
 C           -1.27131784       -2.46354877       -1.81419958
 C            2.38296743       -2.06430335       -1.80776025
 C            1.10032247       -2.54847794       -2.28990173
 C            3.06168460        0.28010315       -2.20566667
 C            2.85559979       -1.05378189       -2.72294746
 C            1.41999634        2.10343586       -2.19472228
 C            2.16296230        1.17423532       -2.92250803
 C           -0.81288711        2.65528178       -1.41707678
 C            0.04889548        2.23375144       -2.43830082
 C           -3.07492166        2.54468273       -0.50455349
 C           -3.92481661        1.38386732       -0.73348197
 C           -2.18551018        2.66334421       -1.63939466
 C           -3.26882279       -0.52076934       -2.16061392
 C           -3.57476872        0.83691401       -2.03265495
 C           -2.73499295        1.82914012       -2.68954024
 C           -1.51986288       -1.96925811       -3.09367835
 C           -2.53852107       -0.94316943       -3.26897395
 C            0.87463263       -1.96488396       -3.60112568
 C            1.91578317       -0.97445515       -3.82689505
 C            1.54044360        0.41978278       -3.99806547
 C           -0.42035903       -1.67021810       -3.99473215
 C           -0.48328775        1.74363211       -3.63242365
 C           -1.90053791        1.42426029       -3.71688234
 C           -2.00719201        0.05479335       -4.18010528
 C            0.23769523        0.71904331       -4.36819090
 C           -0.68792649       -0.37731936       -4.60415129
