   70
C70 / DATE: 7/ 1/2024 / Origin: Program Fullerene / C70 from database
 C            1.34796927        0.07651051        4.40413017
 C            2.55599146       -0.27995864        3.69829061
 C            2.49082282       -1.70183843        3.40048782
 C            0.51139740       -1.11055962        4.49033415
 C            1.14488892       -2.15430399        3.70430214
 C           -0.85143362       -0.72238368        4.17262955
 C            0.53189203        1.14500869        3.87157955
 C           -0.85234145        0.70147578        3.88339887
 C            0.97566842        1.90173971        2.78865317
 C            2.86674616        0.41125523        2.46184759
 C            2.04193395        1.44182783        1.99851700
 C            3.00514350       -1.89719432        2.05834834
 C            3.32752268       -0.58861045        1.51554446
 C            2.38256155       -2.82254708        1.23736668
 C            0.40866173       -2.80963519        2.71827840
 C            1.06664766       -3.32846270        1.60418588
 C           -1.61717987       -1.56509088        3.38735122
 C           -0.97872713       -2.67645273        2.69428349
 C           -2.59744349       -0.98881323        2.48785450
 C           -1.71851849        1.22730716        2.92460373
 C           -2.61797145        0.38411584        2.25558488
 C            0.05143426        2.77584161        2.23413748
 C           -1.36153076        2.44927069        2.35512280
 C            0.26730326        3.30476785        0.90491995
 C            2.11099443        1.78010799        0.63818237
 C            1.25474114        2.74940654        0.10253972
 C            3.13389814       -0.33573380        0.16479397
 C            2.87141191        0.97481765       -0.21473038
 C            2.38381267       -2.59998937       -0.19703503
 C            2.78245473       -1.37193234       -0.70822566
 C            0.33014411       -3.57542398        0.37341985
 C            1.19546223       -3.21838778       -0.74308019
 C           -1.71046228       -2.90499846        1.45701162
 C           -2.76049073       -1.90050742        1.36684710
 C           -1.03131528       -3.28997937        0.30567224
 C           -3.12034267       -1.39368530        0.12118387
 C           -3.30750988        0.84240582        1.13502483
 C           -3.54941905       -0.07092595        0.02684466
 C           -2.03450086        2.93350273        1.16472436
 C           -1.03690625        3.58838683        0.33261945
 C           -3.01832784        2.15255553        0.57965489
 C           -1.17344351        3.57557922       -1.04709632
 C            1.19833421        2.94957042       -1.27971983
 C            0.01439290        3.40155280       -1.86519045
 C            2.95978159        1.28421552       -1.56227654
 C            2.17623458        2.38254730       -2.08682257
 C            2.42527792       -1.04718447       -2.01819032
 C            2.85366839        0.18784929       -2.50302144
 C            0.63217743       -2.67797954       -1.89186411
 C            1.33246614       -1.70440569       -2.61271325
 C           -1.60252312       -3.01875222       -0.93328294
 C           -2.69097254       -2.05591328       -1.02591006
 C           -0.73985966       -2.81925608       -2.08590530
 C           -2.52270249       -1.31519739       -2.26767936
 C           -1.43616948       -1.93569261       -3.00565947
 C           -3.35141371        0.66685082       -1.21231874
 C           -3.10109557        2.05541628       -0.86957360
 C           -2.24387666        2.80250449       -1.66296808
 C           -2.65637914        0.07068579       -2.26131331
 C           -0.42486271        2.83607258       -3.13020301
 C           -1.71602251        2.21399107       -2.88249299
 C           -1.88460208        0.85102500       -3.13027620
 C            1.86993100        2.07534485       -3.47631332
 C            2.32495827        0.71925324       -3.74143547
 C            0.49784235        2.18745786       -3.93799439
 C            0.75307714       -1.20817396       -3.78258955
 C           -0.69360846       -1.16380811       -3.88104381
 C           -1.05963229        0.22841990       -4.06642810
 C            1.25444078        0.00637593       -4.39545769
 C            0.12949789        0.91876173       -4.54145989
