   70
C70 / DATE: 7/ 1/2024 / Origin: Program Fullerene / C70 from database
 C            1.44412044       -0.07489126        4.74751940
 C            0.66520456       -1.20970172        4.29551937
 C            1.42629057       -1.89776370        3.27611878
 C            2.61964304        0.01211459        3.89740894
 C            2.51074915       -1.01619160        2.87991490
 C            2.73312008        1.38365598        3.47482704
 C            0.64895512        1.11902830        4.51433553
 C            1.50470900        2.07363290        3.85937291
 C           -0.64896789       -0.73211026        3.92577657
 C           -0.57382958        0.71637926        3.84555872
 C           -1.30269304       -1.39172646        2.89953956
 C            0.71877538       -2.52719070        2.26673656
 C           -0.67839299       -2.48621726        2.29385235
 C            1.33753586       -2.64878302        1.03337505
 C            2.64644658       -0.69145802        1.52388707
 C            2.12932099       -1.58762265        0.58114404
 C            2.94522424        1.65655662        2.06887423
 C            2.97362443        0.61827340        1.13300551
 C            1.01082586        2.74304859        2.67441872
 C            2.13239754        2.81205437        1.76625817
 C           -0.97272787        1.34138425        2.65687961
 C           -0.24066639        2.42366461        2.13921940
 C           -2.20241771       -0.66044984        2.14153994
 C           -1.88799319        0.66882853        1.83877656
 C           -3.04850105       -1.37643611        1.31285589
 C           -1.37547734       -3.16855234        1.29132251
 C           -2.67319472       -2.74177528        0.98856565
 C            0.75255662       -3.51141632        0.12295741
 C           -0.63190839       -3.88834811        0.34956297
 C            0.90887106       -3.25545469       -1.29283270
 C            2.13376383       -1.24917244       -0.77514057
 C            1.43060217       -2.03348023       -1.69639719
 C            2.85770892        0.98121116       -0.21357768
 C            2.62751391       -0.00735783       -1.17457415
 C            1.85014784        3.04842198        0.44051947
 C            2.55209678        2.31801193       -0.50641586
 C           -0.50057540        2.86748337        0.83771101
 C            0.55894680        3.43753106        0.11753144
 C           -2.22165921        1.19719385        0.58833129
 C           -1.61642906        2.37640182        0.15397666
 C           -3.53707815       -0.75826976        0.09894846
 C           -2.96116212        0.43328793       -0.32155972
 C           -3.29077712       -3.06595253       -0.28608851
 C           -3.74227017       -1.81711242       -0.87857777
 C           -1.19786353       -4.24150982       -0.94126616
 C           -0.28044435       -3.76155035       -1.96229020
 C           -2.52632826       -3.78158077       -1.28514334
 C           -3.10931302       -1.68596376       -2.17853523
 C           -1.01465318       -2.86251788       -2.83429688
 C           -2.41378416       -2.92764703       -2.45780784
 C            0.89344357       -1.43104896       -2.83162602
 C           -0.45482314       -1.62206667       -3.11436583
 C            2.51723952        0.35154622       -2.51684812
 C            1.50321573       -0.29464157       -3.32822406
 C            2.45297612        2.73936870       -1.82625256
 C            2.52637809        1.75490212       -2.88216313
 C            0.35035363        3.92038891       -1.16803832
 C            1.38606833        3.67259194       -2.16189338
 C           -1.87993129        2.82135067       -1.14034430
 C           -0.93022199        3.69641617       -1.80009932
 C           -2.76220782        0.62228435       -1.68717838
 C           -2.47975758       -0.48467148       -2.48033862
 C           -1.28271552       -0.49988937       -3.20078352
 C           -2.33206890        1.85955512       -2.12758376
 C            0.65360192        0.75033310       -3.86752511
 C            1.41036505        1.98749995       -3.78846843
 C            0.74249944        3.20385264       -3.37668139
 C           -0.68371612        3.16369274       -3.13293242
 C           -0.71281987        0.72156996       -3.57186918
 C           -1.38792205        1.89700513       -3.22842208
