   70
C70 / DATE: 7/ 1/2024 / Origin: Program Fullerene / C70 from database
 C            1.20510630        0.24111254        4.76499210
 C            2.46097873        0.03305042        4.07734655
 C            2.50219482       -1.35908975        3.66996826
 C            0.38911910       -0.94972445        4.56185682
 C            1.14625985       -1.87311541        3.74618942
 C           -0.90781865       -0.52018110        4.09357044
 C            0.40356164        1.38989090        4.40025378
 C           -0.95642362        0.92350360        4.20179376
 C            0.76505277        2.16454121        3.22492199
 C            2.76819246        0.83182095        2.90260763
 C            1.87727415        1.81232088        2.45477728
 C            3.18669440       -1.42340603        2.39275712
 C            3.37932734       -0.05777771        1.92873886
 C            2.76229244       -2.37176661        1.47926002
 C            0.57268660       -2.40860232        2.59383373
 C            1.42915528       -2.94153142        1.63385293
 C           -1.45013118       -1.09429563        2.95267014
 C           -0.73434871       -2.05636778        2.22482832
 C           -2.45852275       -0.39287799        2.30489953
 C           -1.51984283        1.66628808        3.08670845
 C           -0.47356840        2.51527121        2.54869271
 C           -2.33212541        0.99471377        2.18394512
 C           -0.43342983        2.73566355        1.17742525
 C            1.89900108        2.17491064        1.10560540
 C            0.81092269        2.87912754        0.57939469
 C            3.22112297        0.24009302        0.57908594
 C            2.77603994        1.51161858        0.24105857
 C            2.94215417       -2.10231914        0.06783036
 C            3.11927342       -0.78938394       -0.36494801
 C            0.92635389       -3.23849534        0.30502819
 C            2.00052040       -2.95121392       -0.63080292
 C           -1.24955311       -2.48773098        0.99255458
 C           -0.37867619       -2.88701494       -0.02332950
 C           -3.21133474       -1.07885840        1.36730745
 C           -2.56871166       -2.17904102        0.67037238
 C           -3.96196403       -0.31121834        0.39466245
 C           -2.54052602        1.58088727        0.93719467
 C           -1.52756772        2.37048939        0.38291659
 C           -3.52387597        1.04250794        0.11962031
 C           -1.45938080        2.56657421       -1.00454601
 C            0.85725906        3.33411563       -0.72860775
 C           -0.33782528        3.20156268       -1.54401932
 C            2.85046654        1.89853880       -1.08754664
 C            1.99691783        2.97437837       -1.54559532
 C            2.83973877       -0.47280152       -1.70031895
 C            2.85150461        0.86073761       -2.10264558
 C            1.67410073       -2.63393789       -1.93468884
 C            2.21885115       -1.41761162       -2.51830723
 C           -0.71569660       -2.67967374       -1.36750700
 C            0.28429717       -2.71119038       -2.33827859
 C           -2.96430954       -2.11072778       -0.72566022
 C           -3.94583826       -1.04821253       -0.85236229
 C           -1.99850463       -2.24976020       -1.71701015
 C           -3.41715245        1.18694969       -1.31858925
 C           -2.36724889        1.92687015       -1.85727195
 C           -3.78459230       -0.08935841       -1.92526920
 C           -2.04434630        1.74413810       -3.20214961
 C            0.08530267        2.89379263       -2.90124363
 C            1.51094059        2.63140100       -2.86855050
 C            1.97887942        1.29369265       -3.18561306
 C           -0.71270090        2.06961434       -3.67449017
 C            1.28689025       -0.97744631       -3.54761300
 C            0.15008692       -1.89167494       -3.52520096
 C            1.09061607        0.38722992       -3.75838473
 C           -0.14152737        0.84749682       -4.22667708
 C           -2.21902849       -1.65130941       -2.96339606
 C           -3.10940535       -0.50105197       -3.06289602
 C           -2.43272047        0.50677580       -3.85347268
 C           -1.10716181       -1.43114444       -3.87594337
 C           -1.23327594       -0.09176651       -4.41558618
