   70
C70 / DATE: 7/ 1/2024 / Origin: Program Fullerene / C70 from database
 C            1.55990720        0.02637020        4.40964021
 C            0.77256156       -1.17136178        4.17916696
 C            1.51793870       -2.02644972        3.28812582
 C            2.68631202       -0.00342982        3.49248350
 C            2.66898303       -1.27370549        2.80754751
 C            2.63866576        1.19712532        2.69375549
 C            0.73734028        1.16950537        4.05674179
 C            1.45968691        1.94856236        3.07922911
 C           -0.54905193       -0.76656794        3.76751307
 C           -0.57399934        0.68481430        3.69360322
 C           -1.18040701       -1.47491034        2.75385781
 C            0.83007656       -2.80635673        2.36660205
 C           -0.53657832       -2.55803380        2.12980219
 C            1.60257293       -3.34170184        1.34613352
 C            2.96461126       -1.32162130        1.44636826
 C            2.65515870       -2.51113756        0.78548231
 C            2.93038211        1.12487364        1.33745996
 C            3.04752484       -0.12698684        0.70517833
 C            2.58884275        2.23047472        0.56210418
 C            0.75096663        2.57147724        2.06157010
 C            1.47586843        2.99005415        0.95301163
 C           -1.22895115        1.26892299        2.61426506
 C           -0.62202344        2.32056195        1.90715026
 C           -2.23787329       -0.85266625        2.10207740
 C           -2.24795555        0.54203848        2.00601415
 C           -3.04657833       -1.62143395        1.27963153
 C           -1.20452752       -3.23360231        1.09182180
 C           -2.51622168       -2.87448982        0.77611696
 C            0.96034061       -4.04498486        0.26299185
 C           -0.47749243       -3.96216862        0.14783225
 C            2.47159086       -2.50540804       -0.65293877
 C            1.53015303       -3.55383274       -0.98312121
 C            2.98289529       -0.18793590       -0.69448591
 C            2.38101480       -1.28452431       -1.29625716
 C            3.02332967        2.24369547       -0.75614592
 C            3.12524509        0.97393937       -1.44071309
 C            2.49489580        3.21696302       -1.69068821
 C            0.83502094        3.82967019        0.05424059
 C            1.38787200        4.04291628       -1.26823230
 C           -1.30121941        2.89989767        0.82136717
 C           -0.60503908        3.72079246       -0.06778467
 C           -3.03310160        1.17189608        1.05272467
 C           -2.51323759        2.35604203        0.39764891
 C           -3.81729538       -0.98996100        0.22081310
 C           -3.73933777        0.38357947        0.05939240
 C           -2.97698072       -3.02358398       -0.59494788
 C           -3.72462838       -1.83027198       -0.95406558
 C           -0.76825570       -3.79135369       -1.26723671
 C            0.43115211       -3.24443188       -1.87402990
 C           -1.99654255       -3.26934701       -1.63575239
 C            1.42683243       -1.08158122       -2.30125990
 C            0.37101241       -1.98966300       -2.47331676
 C            2.38473820        1.09093143       -2.68499242
 C            2.09008670        2.50078821       -2.88947763
 C            1.41467628        0.13644720       -2.98540773
 C            0.31100982        3.87861077       -2.23016697
 C           -0.91778043        3.65033370       -1.48844011
 C            0.73125842        2.89730875       -3.21218806
 C           -2.77074510        2.22156100       -1.02956938
 C           -3.41949743        0.93716529       -1.25019949
 C           -1.82205868        2.68960570       -1.93104362
 C           -3.13883702       -1.27720003       -2.16120954
 C           -2.03471489       -2.13974811       -2.55233750
 C           -0.84981246       -1.55115315       -2.99142589
 C           -2.98367774        0.10262220       -2.28075514
 C            0.26012538        0.53122987       -3.65558421
 C           -0.17105786        1.92043537       -3.60399559
 C           -1.52380227        1.93171373       -3.06351888
 C           -0.93123440       -0.28855968       -3.56179046
 C           -2.04013302        0.57723868       -3.18638617
