   70
C70 / DATE: 7/ 1/2024 / Origin: Program Fullerene / C70 from database
 C            1.19083710        0.08049081        4.31206387
 C            2.43057170       -0.20424611        3.62921202
 C            2.36807253       -1.58874999        3.18938821
 C            0.35832917       -1.11099907        4.22617850
 C            0.99164244       -2.01278725        3.29060920
 C           -0.99390053       -0.67754690        3.94586838
 C            0.38970942        1.19295283        3.84926400
 C           -0.99884272        0.77682980        3.92412303
 C            0.80074395        1.94580023        2.75324701
 C            2.78561601        0.59464313        2.47008667
 C            1.87695618        1.51532692        1.96236642
 C            2.99448681       -1.64848243        1.89403608
 C            3.43907578       -0.30634407        1.55114799
 C            2.40187513       -2.40097828        0.88858920
 C            0.30495413       -2.35632511        2.12820995
 C            1.01539937       -2.62815748        0.94405740
 C           -1.73772249       -1.34755126        2.98335663
 C           -1.08741558       -2.21673614        2.09442274
 C           -2.93847888       -0.75373364        2.60651515
 C           -1.94253275        1.42501317        3.12857703
 C           -3.05395030        0.69295340        2.70960589
 C           -0.12585471        2.82479513        2.21728000
 C           -1.54627855        2.55748564        2.40934677
 C            0.06153711        3.32987819        0.87494801
 C            1.93483384        1.84823977        0.60135432
 C            1.14545050        2.89901528        0.11897225
 C            3.49284854        0.01174884        0.20137159
 C            2.76040109        1.11298616       -0.27532709
 C            3.02020972       -2.30884122       -0.35003379
 C            3.70831826       -1.06484059       -0.65090496
 C            2.30580627       -2.70374143       -1.54253616
 C            0.31207118       -2.96824324       -0.22271769
 C            0.93372764       -2.89060807       -1.47271509
 C           -1.79185499       -2.76442347        1.03042633
 C           -1.06679999       -3.15897901       -0.16396195
 C           -3.62044849       -1.17774820        1.39677775
 C           -3.04197878       -2.15582179        0.60541334
 C           -3.84666455        1.15636689        1.58589307
 C           -4.16260396        0.00694973        0.75503711
 C           -2.23993567        2.94541635        1.18666546
 C           -1.24208548        3.39844052        0.23629476
 C           -3.30909965        2.19319821        0.73000532
 C           -1.33433432        3.03159771       -1.10108983
 C            1.09723476        3.15359165       -1.24594163
 C           -0.20866785        3.26530605       -1.88184930
 C            2.72183599        1.36828553       -1.65723977
 C            1.96823602        2.42861393       -2.14283999
 C            3.65709738       -0.86116522       -2.07626383
 C            2.86462565       -1.93931855       -2.64673156
 C            3.11985722        0.38546732       -2.56472137
 C            1.96577500       -1.35572845       -3.62702764
 C            2.26108426        0.06735533       -3.69483675
 C            0.16690190       -2.68663727       -2.62053962
 C            0.64581411       -1.78529450       -3.65874814
 C           -1.88723800       -2.80280376       -1.31152411
 C           -2.94822177       -1.93863176       -0.82804694
 C           -1.26398572       -2.48404089       -2.50451297
 C           -3.75967408        0.31376615       -0.60668626
 C           -3.28294925        1.68483026       -0.63281296
 C           -2.21717044        2.00607822       -1.46847736
 C           -3.07765165       -0.64724202       -1.34470326
 C           -0.41976067       -0.83412755       -3.93924785
 C           -1.56472072       -1.20567546       -3.12425576
 C           -1.86332220        1.10721253       -2.48117480
 C           -2.24074910       -0.23728391       -2.38365978
 C           -0.12222042        2.65664991       -3.19088667
 C            1.26024995        2.26811216       -3.40422471
 C            1.26059519        0.96440754       -4.04288174
 C           -0.95343152        1.50404457       -3.45734880
 C           -0.12223559        0.50998426       -4.11424130
