   70
C70 / DATE: 7/ 1/2024 / Origin: Program Fullerene / C70 from database
 C            1.39246736       -0.03948921        4.88619256
 C            0.60945051       -1.21503663        4.53857452
 C            1.49019435       -2.13144149        3.86413121
 C            2.62978944       -0.09867781        4.12794648
 C            2.74340637       -1.43244815        3.59550422
 C            2.63468279        1.01393906        3.20037208
 C            0.65714041        1.12718345        4.43434839
 C            1.48849672        1.85835733        3.50633512
 C           -0.58020852       -0.76763363        3.84263641
 C           -0.62582759        0.67939758        3.95644469
 C           -0.96135957       -1.35122493        2.62447951
 C            1.05324085       -2.71123715        2.61102206
 C           -0.18054188       -2.36509192        2.04685487
 C            3.02126806       -1.59217564        2.18209548
 C            2.21426989       -2.71115296        1.74880056
 C            2.97929049        0.81977944        1.86079392
 C            3.10542269       -0.48040374        1.33819243
 C            2.72304970        1.87822432        0.99781213
 C            0.87420676        2.52955000        2.45231982
 C            1.66330989        2.81088249        1.34835764
 C           -1.20577723        1.36460791        2.90868126
 C           -0.51050447        2.40170792        2.26917858
 C           -1.87244600       -0.64684876        1.82921196
 C           -2.15227023        0.67667045        2.17534402
 C           -2.18288248       -1.10315151        0.54389354
 C           -0.37556417       -2.70544006        0.70261049
 C           -1.43991318       -2.15036589       -0.01727688
 C            1.98593590       -2.84437509        0.39790640
 C            0.71354510       -3.23693719        0.00727613
 C            2.96019651       -0.70930594       -0.03977376
 C            2.69462472       -2.01571690       -0.46427196
 C            2.65106622        1.64523817       -0.42897245
 C            2.67643335        0.35033504       -0.90706247
 C            1.03690200        3.25485267        0.12384230
 C            1.68681144        2.57451145       -0.98655362
 C           -1.12611806        3.00455943        1.15989540
 C           -0.33816461        3.43838110        0.07743547
 C           -2.98259082        1.43424079        1.37918420
 C           -2.48568333        2.73214755        0.96809754
 C           -3.11960215       -0.40110659       -0.22744552
 C           -3.60393703        0.82034697        0.23041164
 C           -3.28401334       -0.71143467       -1.57148612
 C           -1.62679735       -2.51260083       -1.35953672
 C           -2.50076626       -1.77939668       -2.15835270
 C            0.55874188       -3.63032976       -1.31037281
 C           -0.67678011       -3.31082329       -1.99547110
 C            2.57504176       -2.27582609       -1.82544817
 C            1.65571590       -3.33116782       -2.21556355
 C            2.11351619        0.08953269       -2.15305640
 C            2.33746809       -1.15692343       -2.71900498
 C            0.91452996        2.19291336       -2.08295873
 C            1.08503305        0.91522125       -2.63602276
 C           -0.89652021        3.58303869       -1.19180122
 C           -0.27232547        2.88819580       -2.30828937
 C           -3.14256458        3.06861859       -0.27828676
 C           -3.86800847        1.88645054       -0.72272908
 C           -2.33125086        3.53326533       -1.37501937
 C           -3.34601247        0.36464004       -2.55317681
 C           -1.32688807        2.27319028       -3.09063717
 C           -3.55515578        1.66560663       -2.12103507
 C           -2.60286145        2.68677818       -2.52502524
 C           -2.05478960       -1.31964099       -3.46994983
 C            0.10809829        0.40051956       -3.50544904
 C           -2.27322591        0.11151560       -3.49375007
 C           -1.16802059        0.96045570       -3.50890148
 C           -0.34420169       -3.02474012       -3.38239959
 C            1.09999964       -2.98633241       -3.50715455
 C            1.47545526       -1.61182830       -3.78925782
 C           -0.85588337       -1.80280943       -3.96291247
 C            0.26065535       -0.87174040       -4.05177744
