   70
C70 / DATE: 7/ 1/2024 / Origin: Program Fullerene / C70 from database
 C            1.44083974        0.07821079        4.84777152
 C            0.65720707       -1.13953535        4.75350442
 C            1.27564675       -1.99693749        3.75775429
 C            2.56266784       -0.05173640        3.93627421
 C            2.55988569       -1.40340669        3.41405720
 C            2.50329116        1.04664620        2.98969550
 C            0.60821365        1.16918255        4.37167356
 C            1.26712429        1.76980159        3.23586649
 C           -0.72321867       -0.75382847        4.55584468
 C           -0.73105268        0.65891762        4.18555915
 C           -1.53775295       -1.61949891        3.84411528
 C            0.47412790       -2.55160647        2.75436657
 C           -0.91172199       -2.56657754        2.92455571
 C            1.01512429       -2.78071016        1.48400711
 C            3.05910733       -1.60273772        2.13917533
 C            2.36885623       -2.52819400        1.26791017
 C            2.87700470        0.81132162        1.66728342
 C            3.38530451       -0.44162139        1.32042917
 C            2.32079602        1.60537852        0.66467176
 C            0.50985676        2.14714458        2.13729787
 C            1.18208254        2.36558234        0.94720621
 C           -1.46232262        1.06238273        3.06671927
 C           -0.85714668        1.85627163        2.07773018
 C           -2.68070350       -1.05140275        3.16185546
 C           -2.60518740        0.33815217        2.74893044
 C           -1.76934973       -2.68767936        1.75745430
 C           -2.92590738       -1.84779518        1.97514148
 C            0.17048340       -2.97518944        0.38376625
 C           -1.19034240       -2.70235341        0.49524195
 C            0.72034651       -3.14221770       -0.88311405
 C            2.83565863       -2.24293611       -0.07457855
 C            3.32799942       -0.87418376       -0.07074476
 C            2.06996048       -2.66750671       -1.14210532
 C            2.64099433        1.33813374       -0.66492660
 C            2.87884273        0.01836569       -1.04259408
 C            2.24914226        2.25600951       -1.62809834
 C            0.50061374        2.97546562       -0.09621534
 C            1.21572605        3.20569936       -1.26851836
 C           -1.53642676        2.12231979        0.87904313
 C           -0.89762252        2.87636445       -0.11696609
 C           -3.14839031        0.41457622        1.41046632
 C           -3.31055896       -0.93990200        0.91878825
 C           -2.65264963        1.35599187        0.52185884
 C           -1.88096038       -2.15063714       -0.59365657
 C           -2.88125601       -1.19345644       -0.37481153
 C           -0.08280672       -2.82615566       -2.05356975
 C           -1.36795293       -2.30889906       -1.88661520
 C            2.00490432       -1.83174395       -2.32388969
 C            2.31126582       -0.47573329       -2.22441963
 C            0.81391452       -2.23465537       -3.03987375
 C            1.94354577        1.78085261       -2.96282906
 C            1.78498116        0.41384888       -3.16604039
 C            0.53183425        3.59613567       -2.48206606
 C            0.98833840        2.71083195       -3.54333338
 C           -1.60418143        3.13863589       -1.29322117
 C           -0.91097070        3.59508845       -2.48359702
 C           -2.91699380        1.15393980       -0.83177224
 C           -3.02087701       -0.16225554       -1.29573078
 C           -2.61277958        2.18548647       -1.70869660
 C           -1.95268954       -1.60235635       -2.93898947
 C           -2.79136906       -0.45856236       -2.63090405
 C            0.29604326       -1.37656039       -3.99405194
 C            0.85900016       -0.03908227       -4.11173361
 C           -1.14443711       -1.25566357       -4.09516895
 C           -0.17962268        2.18721004       -4.22459347
 C           -1.35547085        2.77808431       -3.60154148
 C           -2.42240546        1.91225311       -3.12312723
 C           -2.48694159        0.60241827       -3.57475984
 C           -0.20365282        0.84386056       -4.57668161
 C           -1.45500983        0.11275380       -4.47247955
