   70
C70 / DATE: 7/ 1/2024 / Origin: Program Fullerene / C70 from database
 C            1.11993828        0.03307697        5.04332538
 C            2.38053582       -0.27058749        4.41419139
 C            2.33862835       -1.68179502        4.06582887
 C            0.32820135       -1.19098117        5.01637235
 C            0.93730533       -2.03780488        4.01506137
 C           -1.04560604       -0.79628918        4.83430731
 C            0.28819755        1.05856052        4.45382460
 C           -1.05762960        0.65779113        4.80161719
 C            0.55015999        1.50421187        3.15005374
 C            2.72929451        0.43391753        3.19784175
 C            1.75261819        1.16008076        2.51271024
 C            3.11829274       -1.83251911        2.86507215
 C            3.53745515       -0.49897087        2.45105750
 C            2.48564531       -2.42886923        1.70973902
 C            0.31887163       -2.19664883        2.76569524
 C            1.09498901       -2.56347835        1.65799311
 C           -1.73303740       -1.23187174        3.63663142
 C           -1.00324065       -1.76783171        2.57134078
 C           -2.12810320        1.04176315        3.91765386
 C           -2.68461847       -0.18286122        3.35822789
 C           -0.48381841        2.08460829        2.40355400
 C           -1.81350104        1.88967972        2.78870189
 C           -0.25450032        2.47141984        1.08090596
 C            1.88425499        1.35330208        1.13008666
 C            0.95776557        2.14802276        0.46143319
 C            3.45496645       -0.46881553        1.00736100
 C            3.14259843       -1.81682685        0.58066815
 C            2.77086439        0.56711140        0.37892318
 C            2.53544037       -1.94543859       -0.64885643
 C            0.50800571       -2.65377781        0.39164889
 C            1.36172257       -2.68931152       -0.71370406
 C           -1.51256114       -1.65999549        1.26913571
 C           -0.81665448       -2.24158561        0.20647410
 C           -2.99906810        0.09912625        1.97642195
 C           -2.76102419        1.51155786        1.76541379
 C           -2.55539992       -0.76592700        0.98733848
 C           -1.37193946        2.71460321        0.27813941
 C           -2.48727239        1.91303474        0.47175559
 C           -1.17493207        3.21502993       -0.99847445
 C            1.08302935        2.32810492       -0.91788791
 C            0.16543033        3.16409581       -1.54210070
 C            2.53696385        0.41235374       -0.99052098
 C            2.65626343       -0.87530744       -1.52294589
 C            1.77922643        1.37037539       -1.66676053
 C            2.30617975       -1.11125155       -2.84068940
 C            0.81886092       -2.90361543       -1.97327858
 C            1.49608116       -2.28761775       -3.10315183
 C           -1.32312995       -2.12006031       -1.09591524
 C           -0.60212578       -2.67539065       -2.15137797
 C           -2.71320984       -0.33178234       -0.32307324
 C           -2.82592534        1.04400660       -0.55957574
 C           -2.31453866       -1.16943920       -1.35406362
 C           -2.05489427        2.74011899       -2.05302632
 C           -2.72160836        1.52503499       -1.86318848
 C            0.04265075        3.14871395       -2.98601267
 C           -1.37342718        3.02653145       -3.30185148
 C            1.52724924        1.20585594       -3.03826533
 C            1.77833744       -0.02522583       -3.63840321
 C            0.74012285        2.12381582       -3.72601156
 C            0.49750947       -1.93349525       -4.09033361
 C           -0.80803523       -2.19877979       -3.51232446
 C            0.79903854       -0.59143846       -4.55758989
 C           -2.60886291       -0.78332419       -2.65890242
 C           -2.86578253        0.62263020       -2.91601232
 C           -1.83849850       -1.30923328       -3.77097205
 C           -1.50646316        2.10335769       -4.40860228
 C           -0.17232134        1.63733313       -4.74930991
 C           -0.24780080        0.20757344       -4.99365415
 C           -2.35133371        0.93927418       -4.23843090
 C           -1.61183074       -0.21792556       -4.71123950
