   70
C70 / DATE: 7/ 1/2024 / Origin: Program Fullerene / C70 from database
 C            1.60269081        0.11196394        4.59532913
 C            0.78706806       -1.08809012        4.57032147
 C            1.36021313       -2.00390979        3.60046551
 C            2.64050841       -0.03649729        3.59053177
 C            2.55010546       -1.37294813        3.04260158
 C            2.54020407        1.07715459        2.67121136
 C            0.75859752        1.22320246        4.19466511
 C            1.36708389        1.84871164        3.04269601
 C           -0.59193625       -0.68149940        4.40207862
 C           -0.59741464        0.73476548        4.06433897
 C           -1.43951304       -1.52577129        3.70405861
 C            0.51333473       -2.72206065        2.75344552
 C           -0.87196944       -2.59957252        2.89310462
 C            1.03154445       -3.20985292        1.55509768
 C            2.82355682       -1.55322701        1.69249738
 C            2.29809204       -2.68448334        1.07850763
 C            2.76498908        0.83946407        1.31734200
 C            3.14877193       -0.44084683        0.90568132
 C            2.19890774        1.71388466        0.38333667
 C            0.55156778        2.30329340        2.01923870
 C            1.14457621        2.53566738        0.78793263
 C           -1.36697387        1.16524265        2.98484818
 C           -0.83226087        2.08485034        2.06880439
 C           -2.52469203       -0.94075919        2.93930088
 C           -2.49053079        0.41911908        2.63254557
 C           -1.72785518       -2.76302997        1.72457409
 C           -2.87748135       -1.89517552        1.90190480
 C            0.16047747       -3.35758595        0.39727926
 C           -1.14535767       -2.89644691        0.46727654
 C            2.30369610       -2.78546271       -0.36825244
 C            0.94916975       -3.09961184       -0.79197087
 C            3.46451827       -0.63549423       -0.43419295
 C            3.02604036       -1.85598680       -1.09644455
 C            2.48608203        1.54777171       -0.97620120
 C            3.26075153        0.45953445       -1.36852774
 C            1.78675123        2.27888883       -1.94381784
 C            0.42162676        3.24733066       -0.14846241
 C            0.77838689        3.15481824       -1.54897962
 C           -1.62720879        2.55070957        1.01154003
 C           -1.02603971        3.23936550       -0.04377033
 C           -3.33492507        0.89676944        1.63984778
 C           -2.88943080        1.99678848        0.80423885
 C           -3.55368148       -1.43729243        0.78407198
 C           -4.01655427       -0.06191763        0.78680695
 C           -1.71803964       -2.26221379       -0.64017281
 C           -2.99351986       -1.70510757       -0.53067368
 C            0.39045081       -2.38870899       -1.84812114
 C           -0.94443704       -1.97388928       -1.77358401
 C            2.54681337       -1.48168171       -2.41426329
 C            3.03820622       -0.13875468       -2.67013877
 C            1.24429417       -1.81238368       -2.79148998
 C            1.86845800        1.91094869       -3.28875020
 C            2.41360377        0.61199144       -3.65057832
 C            0.72628922        2.15934113       -4.15418235
 C           -0.45399305        3.23510625       -2.32051747
 C           -1.55547010        3.07364985       -1.38768524
 C           -0.51789658        2.59483279       -3.54821071
 C           -3.33913185        1.73693238       -0.55837524
 C           -3.96170381        0.42943735       -0.57621140
 C           -3.35753256       -0.59755398       -1.39846948
 C           -2.50598189        2.08576150       -1.61460729
 C           -1.45071023       -1.09704334       -2.73638405
 C           -1.49351617        1.52758532       -3.72239317
 C           -2.45672912       -0.20570558       -2.37524167
 C           -2.28582264        1.15797956       -2.63813165
 C            0.69810520       -1.17621025       -3.90005144
 C            1.42067602       -0.05286598       -4.47348795
 C            0.45380654        0.94217800       -4.89637298
 C           -0.71093945       -0.83056824       -3.88068031
 C           -0.86076659        0.47516871       -4.49812705
