   70
C70 / DATE: 7/ 1/2024 / Origin: Program Fullerene / C70 from database
 C            1.29145852       -0.05276382        4.09571420
 C            2.44297009       -0.27846206        3.23877511
 C            2.41831339       -1.67970258        2.86010393
 C            0.43540974       -1.22483184        3.99676656
 C            1.06109435       -2.14882747        3.07647280
 C           -0.90775148       -0.77307208        3.70516791
 C            0.47095706        1.12431713        3.87583030
 C           -0.89651780        0.68223984        3.66385381
 C            0.97456945        2.15193981        3.09772098
 C            2.78573084        0.68199594        2.28781044
 C            2.22451798        1.95710461        2.37701137
 C            3.46261236        0.29186315        1.12695493
 C            3.07485970       -2.06540386        1.70553610
 C            3.76815764       -1.05429187        0.92843752
 C            2.37380239       -2.91454380        0.75898458
 C            0.32229061       -2.61643212        1.99347248
 C            0.98766175       -3.01560605        0.83009885
 C           -1.66886303       -1.45537413        2.76216528
 C           -1.06849737       -2.45129014        1.97710816
 C           -2.81323444       -0.81482142        2.29884085
 C           -1.71406708        1.33158913        2.73709192
 C           -2.82960213        0.63862862        2.26639916
 C            0.07547872        2.88477988        2.22632476
 C           -1.23273393        2.44465123        2.03316290
 C            2.19367569        2.82250115        1.21121572
 C            0.84461696        3.34480162        1.07916784
 C            3.60170417        1.18479181        0.06313738
 C            2.88768957        2.45036606        0.07636679
 C            3.59638663        0.68970073       -1.30699301
 C            3.88006433       -1.56678229       -0.42664075
 C            2.98791574       -2.70902598       -0.53801669
 C            3.60746814       -0.67565006       -1.53813673
 C            2.12463482       -2.49205079       -1.68280479
 C            2.54215571       -1.26342340       -2.33547921
 C            0.26033467       -3.21822193       -0.34164799
 C            0.76411456       -2.74342154       -1.55931327
 C           -1.79933872       -3.05934074        0.95712529
 C           -1.09355467       -3.50816192       -0.23043295
 C           -3.49155856       -1.29975887        1.11246064
 C           -3.06485545       -2.48207269        0.53126202
 C           -3.48882705        1.04768692        1.03902296
 C           -3.77973599       -0.14871589        0.26721991
 C           -1.92129221        2.92068074        0.91865472
 C           -3.05404750        2.18413976        0.38520309
 C            0.22866628        3.39832854       -0.17006713
 C           -1.16367806        3.44776830       -0.20711601
 C            2.26826245        2.62784551       -1.22483882
 C            2.69119142        1.52486872       -2.07241888
 C            0.95483540        3.08647910       -1.32831557
 C            1.56591081       -0.44345387       -2.90010564
 C            1.75629053        0.94641452       -2.92440720
 C           -0.10030108       -2.14824460       -2.47670347
 C            0.29634379       -0.98362790       -3.14142086
 C           -1.95674454       -3.29172615       -1.37538826
 C           -3.16013879       -2.62270162       -0.90922801
 C           -1.43790501       -2.53182151       -2.49563503
 C           -3.47965540       -0.19252618       -1.09528031
 C           -3.34103921       -1.43116434       -1.72095680
 C           -2.45202831       -1.55900516       -2.86122792
 C           -2.93324699        2.16731838       -1.06189566
 C           -1.87758310        3.10302105       -1.42211732
 C           -3.06903498        0.96717495       -1.76192080
 C            0.28749119        2.86185373       -2.53376492
 C            0.73628395        1.77083024       -3.38699690
 C           -1.16342128        2.90543128       -2.59089498
 C           -0.65086512       -0.23839831       -3.83769679
 C           -2.05878956       -0.41241675       -3.52721924
 C           -2.54453209        0.86976998       -3.05021624
 C           -0.42772515        1.18018699       -4.01101434
 C           -1.60475532        1.87606631       -3.51432876
