   70
C70 / DATE: 7/ 1/2024 / Origin: Program Fullerene / C70 from database
 C            1.22549480       -0.07777516        4.43126810
 C            2.50212601       -0.33151256        3.81172230
 C            2.42764144       -1.65260879        3.20769922
 C            0.38556662       -1.24162882        4.18078786
 C            1.03166996       -2.01610253        3.14719279
 C           -0.94493928       -0.74669390        3.92714555
 C            0.46636724        1.07398313        3.99462113
 C           -0.91594131        0.68796171        4.16839520
 C            0.83360436        1.73468796        2.82054110
 C            2.96604081        0.57636367        2.78076893
 C            2.13200720        1.58887464        2.30864815
 C            3.15556410       -1.59062556        1.96639569
 C            3.68161817       -0.24240345        1.82148535
 C            2.61386609       -2.18687855        0.83947596
 C            0.42279140       -2.12529245        1.89561932
 C            1.21952486       -2.34983555        0.76028479
 C           -1.64211509       -1.20976605        2.81616422
 C           -0.92664663       -1.76774189        1.74213355
 C           -2.86963126       -0.60479883        2.57578113
 C           -1.89053001        1.45492760        3.55848966
 C           -3.05541291        0.75344938        3.05805190
 C           -0.16484035        2.33523563        2.04075222
 C           -1.47522871        2.37608177        2.50883812
 C            0.08317997        2.64485474        0.70511240
 C            2.45410479        2.17515189        1.08972221
 C            1.39890554        2.74848471        0.27389940
 C            3.88263750        0.23533089        0.52875368
 C            3.39638035        1.50553557        0.19949769
 C            3.33053841       -1.98533993       -0.32613589
 C            4.03154852       -0.71848014       -0.47657434
 C            2.73524495       -2.32102579       -1.59445327
 C            0.60356136       -2.52038087       -0.48780906
 C            1.38602098       -2.63975217       -1.65020708
 C           -1.51604688       -1.86342359        0.47676278
 C           -0.79237121       -2.42221827       -0.57745735
 C           -3.46962042       -0.68325855        1.26073521
 C           -2.79249136       -1.33455051        0.23739743
 C           -3.59250716        1.53494310        1.96729555
 C           -2.56436675        2.47310230        1.55081025
 C           -4.09558381        0.60172635        0.98067166
 C           -0.94874076        2.55505362       -0.23857649
 C           -2.28536464        2.56825894        0.18907056
 C           -0.63002375        2.35557025       -1.59253355
 C            1.70735129        2.47407154       -1.11635431
 C            2.99991172        1.81830035       -1.17023484
 C            0.68025430        2.05881084       -1.95282360
 C            3.93408965       -0.32162975       -1.86664923
 C            3.26614511       -1.39505487       -2.58006250
 C            3.25591117        0.91534333       -2.18989709
 C            0.92788403        1.14571422       -2.98707221
 C            2.33722147       -0.79560083       -3.51703696
 C            2.20529679        0.60606497       -3.14890457
 C            0.78178817       -2.56965249       -2.90107468
 C            1.18242814       -1.50275021       -3.80973819
 C           -1.43543009       -2.62412594       -1.79525779
 C           -0.65086169       -2.71493789       -3.00457170
 C           -3.22104000       -1.12442014       -1.07536341
 C           -2.60717531       -1.82811437       -2.10562155
 C           -4.12112604        1.03008482       -0.33414730
 C           -3.29274957        2.17364624       -0.69026860
 C           -3.91506732        0.04742344       -1.37815365
 C           -1.62798168        2.13627279       -2.53087395
 C           -3.00507987        2.06875934       -2.10365266
 C           -3.54148000        0.79710652       -2.56098324
 C           -0.14664511        0.55384103       -3.66311865
 C           -0.02203529       -0.75994960       -4.11718891
 C           -1.12270112       -1.68207478       -3.91233264
 C           -2.36106155       -1.15937065       -3.37938839
 C           -1.42310971        1.09749223       -3.52166385
 C           -2.57834064        0.20726594       -3.46580960
