   70
C70 / DATE: 7/ 1/2024 / Origin: Program Fullerene / C70 from database
 C            1.40390467        0.05287988        4.57793360
 C            0.64983675       -1.13198157        4.21384854
 C            1.43231441       -1.89566691        3.27158379
 C            2.61325948        0.06993672        3.77422726
 C            2.64054715       -1.13403231        2.97945139
 C            2.66337371        1.33378847        3.08222879
 C            0.60906110        1.21188629        4.20498604
 C            1.41480547        2.03632459        3.34395177
 C           -0.66093122       -0.70492851        3.79814962
 C           -0.65573078        0.74316564        3.69479614
 C           -1.29566507       -1.39666304        2.78423929
 C            0.78304996       -2.53604263        2.21753895
 C           -0.59515699       -2.34484560        2.02158893
 C            1.56855254       -2.92195768        1.14094811
 C            3.07332288       -1.06441061        1.65927028
 C            2.76532244       -2.15063105        0.84411480
 C            3.17005021        1.37995670        1.78710113
 C            3.36678656        0.18195703        1.07578165
 C            2.92575413        2.55817500        1.08341098
 C            0.81653961        2.69785288        2.27955171
 C            1.70343910        3.28305223        1.38769288
 C           -1.18712009        1.31547171        2.53700490
 C           -0.44489179        2.26711040        1.81261802
 C           -2.35649102       -0.74973466        2.18283688
 C           -2.20373590        0.61007075        1.88853421
 C           -3.19612727       -1.52730259        1.41136262
 C           -1.21791634       -2.86016663        0.86908956
 C           -2.59006136       -2.63527506        0.69823669
 C            0.94320335       -3.27820565       -0.11398761
 C           -0.44052831       -3.25889188       -0.22734563
 C            2.89067138       -2.04940209       -0.59769848
 C            1.74403214       -2.71369915       -1.19068772
 C            3.69204206        0.23819804       -0.28175356
 C            3.35600154       -0.87424371       -1.15425487
 C            3.13373369        2.61849042       -0.35086584
 C            3.46726093        1.46145025       -1.03278578
 C            1.20514751        3.86052266        0.16762006
 C            2.12149238        3.49772877       -0.90350351
 C           -0.90410413        2.66804305        0.54271175
 C           -0.13131749        3.51141215       -0.25190077
 C           -2.74393843        1.12260028        0.71160116
 C           -1.97446119        1.99745192       -0.05706384
 C           -4.13543710       -0.87063898        0.53146173
 C           -3.86133166        0.50135104        0.15885027
 C           -3.18235912       -2.67154821       -0.62940137
 C           -4.22377334       -1.65866601       -0.68422072
 C           -0.97227335       -3.22205781       -1.51509583
 C           -2.36374655       -2.87625104       -1.72885961
 C            1.09526689       -2.15745235       -2.29108589
 C           -0.18693483       -2.62056706       -2.58204227
 C            2.69759408       -0.33987560       -2.33345915
 C            2.76107356        1.11238816       -2.26003547
 C            1.54679452       -0.94606748       -2.83283543
 C            1.32200895        3.03880487       -2.02245786
 C           -0.07419208        3.26220664       -1.67759468
 C            1.67260303        1.87105316       -2.69798424
 C           -2.10917637        2.02505017       -1.45551545
 C           -1.03567068        2.44003895       -2.24132267
 C           -4.10221585        0.61284744       -1.26305570
 C           -4.25528286       -0.73288955       -1.79943873
 C           -3.12315413        1.30193568       -2.07343536
 C           -2.43094274       -1.98163314       -2.87972146
 C           -1.08384088       -1.83495139       -3.41034682
 C           -3.29364139       -0.88897882       -2.87583144
 C           -2.77770014        0.43346140       -3.18525302
 C            0.70895449       -0.18381497       -3.64254621
 C            0.70727347        1.26283472       -3.49544141
 C           -0.67754160        1.67683310       -3.34921920
 C           -0.65926973       -0.60573321       -3.88956844
 C           -1.51841237        0.56287579       -3.75670742
