   70
C70 / DATE: 7/ 1/2024 / Origin: Program Fullerene / C70 from database
 C            1.45403207        0.12589071        4.84541318
 C            0.71083302       -1.10683806        4.67027050
 C            1.51700701       -2.00581696        3.86249445
 C            2.66359335        0.02910514        4.04542254
 C            2.78417887       -1.33637228        3.58479362
 C            2.63408588        1.08763564        3.05351215
 C            0.64831585        1.20277516        4.29935790
 C            1.44185331        1.88178996        3.30153014
 C           -0.61825735       -0.76200101        4.20505151
 C           -0.62862197        0.65795329        3.88470141
 C           -1.25374206       -1.63601184        3.34365315
 C            0.89855241       -2.75832471        2.86091915
 C           -0.48909648       -2.71375162        2.72402920
 C            1.66897180       -3.26113545        1.81566388
 C            3.40131027       -1.55809324        2.36387798
 C            3.00211374       -2.72397967        1.60548756
 C            2.98489910        0.79901598        1.72837000
 C            3.53472425       -0.44701391        1.42299277
 C            2.43892099        1.58421401        0.70295892
 C            0.79873003        2.40782271        2.19876687
 C            1.57406317        2.61217615        1.07405792
 C           -1.16699552        1.08856280        2.66872237
 C           -0.56495155        2.15889307        2.00492110
 C           -2.12978213       -1.09334420        2.32594401
 C           -2.02190495        0.24754277        1.95627989
 C           -1.10031835       -2.99310231        1.43156229
 C           -2.23597898       -2.09763306        1.28818081
 C            1.06804500       -3.46918743        0.50543726
 C           -0.29942688       -3.25532553        0.32041544
 C            3.13741276       -2.40178231        0.19836198
 C            3.37930941       -0.97949617        0.08072300
 C            1.99130363       -2.95064906       -0.48826625
 C            2.37724783        1.08579583       -0.60931342
 C            2.64138367       -0.25796450       -0.85004529
 C            1.74609912        1.84082959       -1.60203168
 C            1.03547846        3.42219200        0.09747195
 C            1.36381651        3.14109734       -1.27811843
 C           -1.14695009        2.65607092        0.83635812
 C           -0.40143843        3.59930606        0.13289680
 C           -2.45287948        0.62141347        0.68044367
 C           -2.07304895        1.85991540        0.14399176
 C           -2.59045137       -1.68405422        0.01963515
 C           -2.98717936       -0.36153698       -0.15447889
 C           -0.76465970       -2.89030622       -0.95191506
 C           -2.05776658       -2.36848866       -1.06572759
 C            1.45144301       -2.24562661       -1.54683144
 C            1.88222013       -0.93858291       -1.80424988
 C            0.17631828       -2.60072612       -1.94667469
 C            1.17071648        1.18861206       -2.70589675
 C            1.22723443       -0.20716324       -2.79892587
 C            0.39125008        1.90068755       -3.62330384
 C            0.35751983        3.82780809       -2.06071398
 C           -0.80517599        3.99128032       -1.19591461
 C           -0.09393292        3.22216998       -3.28839345
 C           -2.50021030        2.22023062       -1.14872169
 C           -1.90294497        3.29070626       -1.81507772
 C           -1.54239239        3.13280953       -3.21238525
 C           -3.53628822        0.00181175       -1.37292827
 C           -3.25030314        1.31854732       -1.90517096
 C           -2.57597831       -2.09428793       -2.32674211
 C           -3.46363518       -0.95132633       -2.46784710
 C           -0.24818292       -2.12526847       -3.17521792
 C            0.33974969       -0.88371017       -3.64383480
 C           -1.66697053       -2.08400169       -3.45323573
 C           -0.70872069        1.23048917       -4.29011034
 C           -1.93635840        1.91300408       -3.88614679
 C           -2.97247049        1.17422829       -3.33068937
 C           -3.08584447       -0.23020832       -3.67057890
 C           -0.68723912       -0.15406431       -4.37069627
 C           -1.93263518       -0.89520754       -4.24448606
