   70
C70 / DATE: 7/ 1/2024 / Origin: Program Fullerene / C70 from database
 C            1.61122328       -0.00618356        4.52155096
 C            0.80170179       -1.19781380        4.33718604
 C            1.39686418       -1.98617291        3.27147990
 C            2.67262115       -0.03894307        3.53412312
 C            2.63523555       -1.33222507        2.88224321
 C            2.55715548        1.13927167        2.69483804
 C            0.77500978        1.14070836        4.22537395
 C            1.36133449        1.85152530        3.10279193
 C           -0.57810798       -0.77881838        4.20008948
 C           -0.59386983        0.67400712        4.09726109
 C           -1.40397647       -1.51054244        3.36073607
 C            0.57702927       -2.52230389        2.27470343
 C           -0.81098890       -2.45442933        2.42014544
 C            1.12394078       -2.76996665        1.00950516
 C            3.00023581       -1.39169172        1.54841188
 C            2.45508784       -2.40830363        0.77758110
 C            2.81826953        0.99082812        1.33726510
 C            3.37603069       -0.21095692        0.90612417
 C            2.13155481        1.78407113        0.41265240
 C            0.50759626        2.33375466        2.12230180
 C            0.96675140        2.46029773        0.80993311
 C           -1.40247516        1.26936332        3.13346541
 C           -0.86377108        2.30310325        2.35930508
 C           -2.47915517       -0.82500857        2.66762312
 C           -2.51343698        0.56556470        2.65889484
 C           -1.65478972       -2.48503999        1.23622084
 C           -2.73361721       -1.53709329        1.42662911
 C            0.26913633       -2.99942868       -0.07564074
 C           -1.05600601       -2.58546300       -0.00810806
 C            0.79781441       -3.31976658       -1.31522395
 C            3.03670609       -2.65583877       -0.45895245
 C            2.23108164       -3.23448690       -1.51283020
 C            3.82322448       -0.29396470       -0.40464577
 C            3.83895299       -1.59865884       -1.04675410
 C            2.46471103        1.68480894       -0.94430132
 C            3.31978118        0.66812688       -1.36877157
 C            1.65472170        2.28766252       -1.89876746
 C            0.14104689        3.07403538       -0.13843405
 C            0.47598527        3.01819053       -1.48391534
 C           -1.69247894        3.00494830        1.49962197
 C           -1.17363777        3.39127455        0.19853944
 C           -3.36009608        1.18339137        1.74560465
 C           -3.04839843        2.53206937        1.31748261
 C           -3.20928518       -0.82209692        0.33497220
 C           -3.77152837        0.43491125        0.56714088
 C           -1.66339893       -1.99893502       -1.12525061
 C           -2.78003133       -1.16000941       -0.95204942
 C            0.15927733       -2.78171959       -2.49966712
 C           -1.08750059       -2.17169163       -2.39571031
 C            2.47249942       -2.47487439       -2.73068840
 C            3.41782692       -1.42855306       -2.42630396
 C            2.99861464       -0.05168069       -2.59367983
 C            1.18489393       -2.09618741       -3.26925117
 C            1.32347638        1.54850993       -3.10798586
 C            1.80665178        0.24960009       -3.25331514
 C            0.94243914       -0.78140038       -3.66844323
 C           -0.57137751        2.78077283       -2.46682049
 C           -0.03954589        1.87644238       -3.47807303
 C           -2.22712417        3.18551148       -0.78573498
 C           -3.38340734        2.64897127       -0.09048746
 C           -3.92897566        1.37918689       -0.52869838
 C           -1.89447615        2.67434794       -2.03766351
 C           -3.28087368       -0.42815983       -2.02672786
 C           -3.65163952        0.95742515       -1.81782612
 C           -2.75436784        1.75456188       -2.64268425
 C           -1.42733117       -1.30045268       -3.42384365
 C           -0.37601112       -0.48342196       -4.00860977
 C           -0.84505162        0.88975053       -4.01483089
 C           -2.61246346       -0.48787594       -3.30683869
 C           -2.25728840        0.87316478       -3.68426841
