   70
C70 / DATE: 7/ 1/2024 / Origin: Program Fullerene / C70 from database
 C            1.61742616        0.03083311        4.47556197
 C            0.78866104       -1.14883694        4.31106646
 C            1.31508778       -1.92407217        3.20029800
 C            2.64032027       -0.00218165        3.44707248
 C            2.50467052       -1.24327809        2.71685782
 C            2.56369206        1.23212484        2.69526821
 C            0.78084789        1.19037532        4.22445162
 C            1.39730901        1.96195511        3.16257147
 C           -0.59056231       -0.71133625        4.24593745
 C           -0.58027218        0.72798528        4.03118002
 C           -1.47205273       -1.47567717        3.50368001
 C            0.41897752       -2.46546196        2.27356161
 C           -0.93536395       -2.48218115        2.59455515
 C            0.81757534       -2.59950711        0.93649471
 C            2.72809637       -1.22969983        1.35161968
 C            2.11336318       -2.21181584        0.59371892
 C            2.79631383        1.18755988        1.32465208
 C            3.10015466       -0.03887939        0.71928567
 C            2.27935695        2.21393433        0.53980438
 C            0.57915264        2.55375926        2.20896490
 C            1.14928586        2.90640183        0.98608549
 C           -1.31818154        1.26731274        2.97813916
 C           -0.80590548        2.36684947        2.28800360
 C           -2.53593420       -0.80248530        2.78795971
 C           -2.37572274        0.53385708        2.42532719
 C           -1.91630934       -2.67433651        1.54610110
 C           -3.01342331       -1.74936201        1.80453626
 C           -0.13538294       -2.80257473       -0.07695163
 C           -1.49540331       -2.88430856        0.23701402
 C            0.27432609       -2.85819917       -1.41808091
 C            2.56424711       -2.39249262       -0.69998608
 C            1.64003313       -2.88057494       -1.70042233
 C            3.36366813       -0.07809317       -0.65477228
 C            3.33190570       -1.31549208       -1.30044128
 C            2.64956088        2.27150882       -0.79796132
 C            3.24565815        1.09281423       -1.40709106
 C            1.75301847        2.87276566       -1.77355910
 C            0.40678722        3.67512977        0.09584150
 C            0.60777927        3.51056911       -1.33133925
 C           -1.62734328        3.01764161        1.37868432
 C           -1.02125270        3.79688867        0.31356128
 C           -3.07511334        1.03482012        1.31831593
 C           -2.74726397        2.29132330        0.81186897
 C           -3.75175093       -1.27435422        0.73616039
 C           -3.76979112        0.15829590        0.47995907
 C           -2.43363930       -2.75494898       -0.77939909
 C           -3.61909865       -1.94920884       -0.54069921
 C           -0.64587022       -2.60194110       -2.44616210
 C           -1.98647841       -2.46047701       -2.12309918
 C           -0.22664272       -1.91876347       -3.58430486
 C            2.12748133       -2.41318851       -2.98714798
 C            3.12205880       -1.38097986       -2.73578385
 C            1.17485831       -1.88757798       -3.93668605
 C            2.77511586        1.03673519       -2.78530845
 C            1.64642242        1.94583228       -2.88451725
 C            2.71635678       -0.18219563       -3.44424792
 C            1.52407201       -0.50279713       -4.20986404
 C           -0.78547832       -0.59977012       -3.83067309
 C            0.39469102        1.45211044       -3.25275164
 C            0.32578696        0.30487216       -4.02560177
 C           -0.66776527        3.10760584       -1.89627593
 C           -1.68694944        3.44899901       -0.93256318
 C           -2.70034979        2.46894782       -0.63234003
 C           -0.74622868        1.89952558       -2.58523222
 C           -3.68121197        0.35366059       -0.95953280
 C           -3.68840367       -0.94400220       -1.58780863
 C           -2.65484253       -1.23976001       -2.54754043
 C           -1.87285074       -0.20722167       -3.05599762
 C           -2.83814699        1.34844336       -1.44129712
 C           -1.83313270        1.02659566       -2.37872089
