   70
C70 / DATE: 7/ 1/2024 / Origin: Program Fullerene / C70 from database
 C            1.51020300        0.01920047        4.54341568
 C            0.71660838       -1.15184744        4.21710812
 C            1.49061387       -1.97677494        3.31993676
 C            2.67524300        0.01701003        3.67524999
 C            2.69098363       -1.23444673        2.96232995
 C            2.65739017        1.23262885        2.89989115
 C            0.72021900        1.19224344        4.21643523
 C            1.50045977        2.01377493        3.31812019
 C           -0.57858943       -0.70272108        3.76713777
 C           -0.58046206        0.75050785        3.76245641
 C           -1.17495805       -1.34901601        2.69671096
 C            0.83676077       -2.67606337        2.30793876
 C           -0.51097016       -2.39164743        2.03036186
 C            1.64044883       -3.17915011        1.28848484
 C            3.08549673       -1.25578514        1.63106558
 C            2.86534478       -2.46006193        0.97810817
 C            2.96871635        1.18501039        1.54167353
 C            3.07596079       -0.05710311        0.88536453
 C            2.67297066        2.32536061        0.80291091
 C            0.83443808        2.75235664        2.34817455
 C            1.59285279        3.18104706        1.26541506
 C           -1.15639823        1.40751695        2.67726367
 C           -0.54384771        2.56171662        2.17480807
 C           -2.18588518       -0.67157704        2.02947089
 C           -2.07384441        0.71312052        1.87965339
 C           -2.98697216       -1.39821947        1.16519142
 C           -1.10299186       -2.91886445        0.87617462
 C           -2.44859912       -2.64005903        0.64276203
 C            1.04031998       -3.58421878        0.03301845
 C           -0.29191396       -3.28207234       -0.20206618
 C            3.09523168       -2.55096402       -0.44053647
 C            2.00997164       -3.33069110       -1.01591845
 C            3.07452944       -0.10292433       -0.52455280
 C            3.19865293       -1.32261356       -1.19002657
 C            2.59198735        2.25445240       -0.63889871
 C            2.74470707        1.03258053       -1.27106317
 C            0.93452260        3.75124743        0.10670651
 C            1.53486109        3.15550702       -1.07944654
 C           -1.20759572        3.28607879        1.18909233
 C           -0.43478819        3.95329411        0.15169812
 C           -2.64367023        1.34789570        0.77183049
 C           -2.37228360        2.69342379        0.55495999
 C           -3.65236915       -0.71248599        0.07634982
 C           -3.26149225        0.58909318       -0.23011363
 C           -2.99020829       -2.82511472       -0.69073656
 C           -3.84616299       -1.68565787       -0.98184281
 C           -0.70348978       -3.00368964       -1.50861876
 C           -2.06217719       -2.97321778       -1.79281569
 C            1.56920711       -2.64690419       -2.21663877
 C            2.47392239       -1.53075308       -2.43081491
 C            0.20557634       -2.45991909       -2.42430884
 C            2.24190568        0.89598103       -2.56280819
 C            2.00955927       -0.42424875       -3.11913760
 C            0.73948554        2.79936929       -2.17062566
 C            1.15463104        1.76019753       -2.99638372
 C           -1.18775537        3.87535989       -1.08327047
 C           -2.44456113        3.20683204       -0.79401039
 C           -0.58734921        3.21784924       -2.23113731
 C           -3.24083197        1.02581536       -1.56696364
 C           -2.70499978        2.27118209       -1.86557666
 C           -1.59176085        2.33393925       -2.80279149
 C           -3.59225637       -1.28300723       -2.34527783
 C           -2.52890628       -2.12552095       -2.87015248
 C           -3.22237574        0.09315111       -2.59796405
 C           -0.21221664       -1.47068077       -3.32097538
 C            0.65860665       -0.43941162       -3.65603552
 C            0.16272818        0.92897055       -3.66436990
 C           -1.19656563        1.16773806       -3.46040965
 C           -1.56874290       -1.26685563       -3.53710236
 C           -2.08712499        0.09283598       -3.50387861
