   70
C70 / DATE: 7/ 1/2024 / Origin: Program Fullerene / C70 from database
 C            1.52003291        0.15856913        4.98486383
 C            0.71895358       -1.05060057        4.95638318
 C            1.50674988       -2.07540220        4.30088280
 C            2.65512406       -0.04065137        4.09562608
 C            2.68948519       -1.43589480        3.73752123
 C            2.56447128        0.94266214        3.03285300
 C            0.71573555        1.23097924        4.43094109
 C            1.48720867        1.85091153        3.37834248
 C           -0.58589888       -0.71368093        4.41029405
 C           -0.58610099        0.70204198        4.07663302
 C           -1.21054281       -1.60306457        3.54878591
 C            0.88992850       -2.86344247        3.24799271
 C           -0.47047976       -2.73883152        3.00591536
 C            2.74449146       -1.78319343        2.33356797
 C            1.79888057       -2.85948577        2.11869898
 C            2.70094653        0.56266178        1.68944564
 C            2.84877742       -0.79334423        1.35068480
 C            2.26612826        1.47375177        0.71306968
 C            0.80213884        2.41844446        2.32332551
 C            1.50220231        2.56371028        1.13972274
 C           -1.15436134        1.13262138        2.87608796
 C           -0.57949502        2.22748694        2.22618186
 C           -2.04355568       -1.07751042        2.48327464
 C           -1.96614850        0.26874514        2.13726156
 C           -0.96244711       -2.97722288        1.66043311
 C           -2.06591460       -2.06817579        1.42708012
 C            1.30417211       -3.01088738        0.83247834
 C           -0.06628719       -3.20299443        0.61750241
 C            2.62717095       -1.18984425        0.03017374
 C            2.05010696       -2.44629499       -0.19162053
 C            2.21668763        1.08174765       -0.63083080
 C            2.57135518       -0.22046403       -0.97216025
 C            1.60493585        1.91038275       -1.58108065
 C            0.94265994        3.41631303        0.20789228
 C            1.17995529        3.17281465       -1.19546490
 C           -1.21641173        2.75754222        1.10289943
 C           -0.47621809        3.66640064        0.34582983
 C           -2.36616779        0.65554862        0.85796263
 C           -2.19856944        1.98368350        0.47178094
 C           -2.28778891       -1.64751603        0.12757970
 C           -2.64668711       -0.32026333       -0.10880018
 C           -0.54732879       -3.09549720       -0.69294422
 C           -1.73854871       -2.39186856       -0.91146311
 C            1.74337646       -2.83912551       -1.48154147
 C            0.37067151       -3.22851141       -1.73555809
 C            2.49153118       -0.62380685       -2.30221563
 C            2.18657170       -2.01168420       -2.58098159
 C            1.18771293        1.38480749       -2.80903594
 C            1.74557254        0.18974463       -3.24731167
 C            0.04970515        1.89323471       -3.45309723
 C            0.08925396        3.80133832       -1.91396078
 C           -0.95860889        4.10128604       -0.94566781
 C           -0.52070615        3.08400873       -3.01210446
 C           -2.76727972        2.40812253       -0.72730960
 C           -2.19354392        3.53673338       -1.43686628
 C           -1.95799778        3.11990982       -2.80525492
 C           -3.00855428        0.05786185       -1.40560009
 C           -3.13924293        1.41243048       -1.71872580
 C           -2.70495198        1.89825257       -3.02688013
 C           -2.15851296       -2.10899293       -2.20485429
 C           -2.88820579       -0.87262778       -2.44038983
 C            0.02510571       -2.79119314       -3.07661988
 C            1.16296827       -2.05573998       -3.60834605
 C            0.96628135       -0.70158640       -4.09449048
 C           -1.25450921       -2.31930953       -3.32433156
 C           -0.75306883        1.03621800       -4.20624061
 C           -2.18380500        0.98615527       -3.93147638
 C           -2.53893988       -0.40661755       -3.76876075
 C           -0.30472113       -0.31385238       -4.49306835
 C           -1.42544878       -1.20794382       -4.24491429
