   70
C70 / DATE: 7/ 1/2024 / Origin: Program Fullerene / C70 from database
 C            1.08687840        0.13343458        5.44825874
 C            0.39752397       -1.07130851        5.01926739
 C            1.39489644       -1.97712680        4.50238463
 C            2.44547930        0.07348499        4.92995063
 C            2.62718031       -1.22491199        4.31599770
 C            2.66092341        1.25463040        4.12253015
 C            0.42801704        1.26667122        4.82411461
 C            1.44213623        2.05077679        4.16083843
 C           -0.69462156       -0.68449067        4.14108363
 C           -0.67204040        0.76311009        4.02566732
 C           -0.95795491       -1.43300775        2.98868379
 C            1.11000080       -2.64074226        3.25093520
 C           -0.16291780       -2.55171188        2.69455723
 C            2.97891392       -1.30956183        2.90383176
 C            2.24413510       -2.43304160        2.36680589
 C            3.02803254        1.10553827        2.72298830
 C            3.08993040       -0.15884696        2.12833635
 C            1.18055441        2.49528674        2.80538616
 C            2.34437169        2.16943416        2.01212024
 C           -0.92589058        1.31409314        2.77449696
 C           -0.06475056        2.27426134        2.22560086
 C           -1.67625773       -0.81450593        1.95466587
 C           -1.72086743        0.58058637        1.90374041
 C           -2.04255929       -1.55258132        0.82242331
 C           -0.30382288       -3.14795040        1.45061128
 C           -1.40455500       -2.76109763        0.59186895
 C            2.00128503       -2.49815164        0.99999511
 C            0.88253015       -3.22123841        0.61211268
 C            2.88587033       -0.25006872        0.74877059
 C            2.42716633       -1.44972290        0.17662832
 C            2.15877197        2.02255618        0.64779735
 C            2.76503582        0.93800637        0.02884651
 C           -0.17503911        2.53138760        0.85793922
 C            0.98476643        2.52198648        0.08180996
 C           -2.14221418        1.19202078        0.73664205
 C           -1.37824953        2.24081780        0.23138822
 C           -2.66234494       -0.90671164       -0.25549742
 C           -2.92607897        0.46002183       -0.13960337
 C           -2.61761511       -1.50008440       -1.52964740
 C           -1.00392689       -3.08827011       -0.76056767
 C            0.44852548       -3.16437693       -0.76295363
 C           -1.62274911       -2.43614304       -1.81515429
 C            2.10994697       -1.47739533       -1.19167315
 C            1.15205335       -2.38479654       -1.67128688
 C            2.71797702        0.88403900       -1.35199307
 C            2.50558384       -0.40125152       -1.98514132
 C            0.86292690        2.48265280       -1.30865043
 C            1.86503112        1.83785379       -2.03595510
 C           -1.53814169        2.59313253       -1.10491951
 C           -0.38809761        2.68616486       -1.90232250
 C           -3.48874485        1.14499458       -1.20680797
 C           -2.77688632        2.31614704       -1.68182016
 C           -3.28055592       -0.88973031       -2.59358273
 C           -3.91035593        0.39185631       -2.36487953
 C           -2.62541959       -0.83155115       -3.89341203
 C           -0.89781000       -2.30686402       -2.99618032
 C            0.54811497       -2.18032376       -2.91075121
 C           -1.37074791       -1.41122223       -4.03457864
 C            1.85944743       -0.14898621       -3.26463895
 C            1.56365720        1.27603531       -3.33865551
 C            0.94479380       -1.06777155       -3.75199778
 C           -0.23474109       -0.60487221       -4.47084513
 C           -0.47942712        2.59975270       -3.29461232
 C            0.42595641        1.71282216       -4.00047463
 C           -0.39571083        0.75528329       -4.72060208
 C           -2.95143448        2.39732639       -3.11693768
 C           -3.70072885        1.22437028       -3.53750684
 C           -2.86914480        0.48066619       -4.46578498
 C           -1.77224066        2.49184758       -3.94407862
 C           -1.73377087        1.31736821       -4.80556293
