   70
C70 / DATE: 7/ 1/2024 / Origin: Program Fullerene / C70 from database
 C            0.94383770       -0.17117272        5.02798213
 C            2.26325886       -0.40044207        4.46647891
 C            2.22466528       -1.66416139        3.74657456
 C            0.12071321       -1.32615031        4.70599195
 C            0.84796748       -2.12302123        3.73849599
 C           -1.19735827       -0.84682633        4.35413952
 C            0.20208055        1.01628337        4.64068020
 C           -1.16229100        0.60735059        4.36438545
 C            0.79862850        1.96878255        3.82270253
 C            2.83824880        0.59115553        3.57550942
 C            2.16663035        1.78856278        3.34922464
 C            2.89685331       -1.47317832        2.46967273
 C            3.42998243       -0.12256226        2.45505838
 C            2.30280905       -1.97940986        1.31479727
 C            0.26845749       -2.42691189        2.50986254
 C            1.11537179       -2.70308300        1.43908330
 C           -1.77005582       -1.25547305        3.08591475
 C           -1.07509962       -2.11662392        2.24742146
 C           -1.81036514        1.06834202        3.14694945
 C           -2.38595727       -0.09165413        2.49006482
 C            0.03270709        2.57465764        2.74346811
 C           -1.20037232        2.03972422        2.35865139
 C            2.27640210        2.43959799        2.05253888
 C            0.97546996        2.99011366        1.71610600
 C            3.57946397        0.52020682        1.23404608
 C            3.04317964        1.86074077        1.05194289
 C            2.65420875       -1.44326398        0.06922216
 C            3.31712890       -0.22061915        0.01149742
 C            2.02073065       -1.91394129       -1.08282793
 C            0.56546564       -3.28332854        0.30978442
 C            1.18810745       -3.02104290       -0.96908017
 C           -1.54283818       -2.25876308        0.94078801
 C           -0.86332471       -3.14158694        0.11632854
 C           -2.52601946       -0.05877254        1.10836761
 C           -2.28773338       -1.21724650        0.36562972
 C           -1.59354325        2.15495424        1.02447099
 C           -2.41632009        1.16800167        0.46774385
 C            0.54434649        3.00161430        0.39550480
 C           -0.82685116        2.94958809        0.17484480
 C            2.60822694        1.97727625       -0.32999293
 C            2.92353611        0.73578930       -1.00523505
 C            1.40430617        2.59856892       -0.63452970
 C            1.88056032       -1.06215581       -2.18626945
 C            2.08475326        0.30654017       -2.02491411
 C            1.19859201       -1.50186385       -3.31700809
 C            0.17520045       -3.25744497       -1.97632234
 C           -1.11095506       -3.12303329       -1.30760413
 C            0.32736166       -2.66503083       -3.21748810
 C           -2.47111683       -1.16421371       -1.02422974
 C           -2.04119764       -2.23265677       -1.82639092
 C           -2.73896815        1.24203196       -0.88337888
 C           -2.85663479        0.05139359       -1.61218978
 C           -1.28719694        3.17348389       -1.11151928
 C           -2.44910690        2.43241380       -1.54488537
 C            0.86265295        2.39402829       -1.90366134
 C            1.17289086        1.20656745       -2.58913809
 C           -0.32415413        3.05597592       -2.18531915
 C            0.52901752       -0.51747747       -4.15232880
 C            0.41543136        0.79893532       -3.69852105
 C           -0.87945827       -2.36645771       -3.96535210
 C           -2.09995169       -2.12876079       -3.21395720
 C           -0.62083896       -1.17751938       -4.75022651
 C           -3.16894575        0.10060326       -2.97111333
 C           -2.76495498       -0.99712225       -3.82157281
 C           -1.87295077       -0.45658411       -4.84274081
 C           -2.43769332        2.47529370       -2.99229007
 C           -1.05850072        2.73115090       -3.38809119
 C           -0.62548609        1.59996412       -4.17510633
 C           -2.88942788        1.31072657       -3.71887800
 C           -1.84357653        0.97913672       -4.66976292
