   70
C70 / DATE: 7/ 1/2024 / Origin: Program Fullerene / C70 from database
 C            1.47628062        0.13140988        5.11080364
 C            0.67181415       -1.07016353        5.25697723
 C            1.32914196       -2.14104241        4.53327924
 C            2.55421082       -0.16790464        4.18565803
 C            2.51113920       -1.58299534        3.89693168
 C            2.45501356        0.75797467        3.07240770
 C            0.64299945        1.15293265        4.49912012
 C            1.28740911        1.59157754        3.28072262
 C           -0.69205849       -0.73713597        4.90007913
 C           -0.70207205        0.63543741        4.40233347
 C           -1.46196272       -1.68931228        4.24124911
 C            0.57696951       -2.87148519        3.52107081
 C           -0.80089103       -2.72882951        3.45466246
 C            2.49186939       -1.98606498        2.50821542
 C            1.34345051       -2.84147836        2.28846415
 C            2.69154414        0.30929191        1.77657925
 C            2.78857203       -1.06293985        1.51607181
 C            2.26939922        1.13051038        0.72871446
 C            0.50210842        1.88124366        2.16935432
 C            1.12615445        1.91061335        0.92049840
 C           -1.45511187        0.93610842        3.26975705
 C           -0.88209722        1.67428176        2.21996810
 C           -2.58813006       -1.22101461        3.46284841
 C           -2.57681754        0.15749740        3.01287735
 C           -1.44816413       -2.78215547        2.15269867
 C           -2.68815523       -2.05762345        2.27791681
 C            0.69857206       -2.74933706        1.05225087
 C           -0.69139737       -2.61847862        0.99058192
 C            2.54182865       -1.46341118        0.21434612
 C            1.44639289       -2.29810353       -0.02813721
 C            2.61386768        0.75946861       -0.56670267
 C            2.90166405       -0.58794814       -0.78974337
 C            2.15624653        1.53793204       -1.62860476
 C            0.39037038        2.33794121       -0.18685465
 C            0.95034220        2.23518735       -1.47104418
 C           -1.62335356        1.91043942        1.05804668
 C           -0.98656112        2.52232142       -0.03143073
 C           -3.13616465        0.15672792        1.68532398
 C           -3.07965205       -1.20161590        1.18449530
 C           -2.76739422        1.14716027        0.79826632
 C           -1.28694747       -2.07515467       -0.16720867
 C           -2.50119162       -1.38065004       -0.06702968
 C            0.84265508       -2.24291814       -1.28194313
 C           -0.52240546       -1.94537461       -1.34175234
 C            2.81156633       -1.08018505       -2.07808790
 C            1.66207450       -1.92134282       -2.35784947
 C            2.63055556        1.23045380       -2.90100948
 C            2.95893101       -0.15057611       -3.17110766
 C            1.94133520        1.73086183       -4.06807037
 C            0.22241778        2.67379353       -2.58926479
 C            0.71589052        2.47295936       -3.88143973
 C           -1.76129232        2.81103894       -1.15209999
 C           -1.11733305        3.02032077       -2.43440238
 C           -3.05720317        0.89526845       -0.52928027
 C           -2.76590325       -0.38991747       -1.00540243
 C           -2.91515161        1.96540390       -1.38771405
 C           -1.03740079       -1.22270322       -2.43798252
 C           -2.24882063       -0.53429040       -2.28715245
 C            1.07333675       -1.44784321       -3.59097553
 C            2.07330983       -0.60003324       -4.22367920
 C            1.63585284        0.58662138       -4.92464041
 C           -0.26087552       -1.05292814       -3.59898567
 C           -0.18654573        2.01975390       -4.92781438
 C            0.23733046        0.67941574       -5.27798915
 C           -0.70256223       -0.22681883       -4.63702854
 C           -2.07937724        2.61836386       -3.45006361
 C           -3.00319373        1.71139718       -2.80505842
 C           -2.67008578        0.37733595       -3.25147276
 C           -1.59933260        1.93851943       -4.63317986
 C           -1.92701132        0.52221067       -4.48036820
