   70
C70 / DATE: 7/ 1/2024 / Origin: Program Fullerene / C70 from database
 C            1.05953248        0.07081485        4.61970063
 C            2.27654128       -0.28204452        3.92171088
 C            2.22041635       -1.70603663        3.64628577
 C            0.24708751       -1.13375027        4.72185846
 C            0.84591412       -2.12200210        3.84998015
 C           -1.12723457       -0.75325084        4.49366288
 C            0.21349362        1.10573959        4.06083237
 C           -1.15127205        0.68773948        4.29532102
 C            0.52296846        1.66997368        2.82469400
 C            2.57414206        0.37884525        2.66838207
 C            1.72044390        1.35788382        2.17129977
 C            2.81224307       -1.92717507        2.34048179
 C            3.07625780       -0.62483954        1.74754568
 C            2.25173506       -2.90306911        1.53789359
 C            0.13598812       -2.62444578        2.75662628
 C            0.86466300       -3.29157561        1.77625186
 C           -1.83191123       -1.33994119        3.37180069
 C           -1.13534848       -2.11561415        2.44132768
 C           -2.13387648        0.95966523        3.26439009
 C           -2.73368237       -0.31015812        2.89373696
 C           -0.49491918        2.28758687        2.09388699
 C           -1.82140853        1.85522899        2.24778682
 C           -0.15336316        3.02380275        0.95865014
 C            1.84780509        1.71019033        0.83409584
 C            1.07773729        2.75774725        0.34551580
 C            2.85999917       -0.43621909        0.38109770
 C            2.44041557        0.81461469       -0.06387076
 C            2.41144198       -2.78751028        0.10412667
 C            2.69632023       -1.54148665       -0.45856885
 C            0.26269816       -3.54095793        0.48193024
 C            1.35365386       -3.58814885       -0.47509219
 C           -1.64560773       -2.23338568        1.13856308
 C           -0.90601393       -2.87096823        0.14113852
 C           -3.25975892       -0.43547243        1.61849181
 C           -2.78245421       -1.51471045        0.77262700
 C           -2.68112619        1.90977720        1.15162612
 C           -3.35917805        0.75042093        0.78042402
 C           -1.19435951        3.58729154        0.22575598
 C           -2.45180989        2.87398105        0.18129043
 C           -0.95545346        4.10934447       -1.10418721
 C            1.36428080        3.23551009       -0.92941757
 C            0.37561738        4.00543909       -1.65534751
 C            2.35368071        1.05319543       -1.43331492
 C            2.01016956        2.33503887       -1.86978540
 C            2.39490227       -1.34043989       -1.81120349
 C            2.28737785       -0.03282483       -2.31312891
 C            1.06428672       -3.39276324       -1.80965944
 C            1.85339490       -2.41436269       -2.52713173
 C           -1.16288541       -2.59013949       -1.20629811
 C           -0.31097758       -3.11397463       -2.17598093
 C           -2.92921535       -1.08746871       -0.60742792
 C           -3.30179932        0.31518051       -0.60734894
 C           -2.01432755       -1.53467629       -1.54256325
 C           -2.67383134        2.52332014       -1.21121637
 C           -1.86819783        3.42033192       -2.00736192
 C           -2.75525808        1.17755348       -1.55550925
 C            0.25401672        3.41940720       -2.97626083
 C            1.37635633        2.51722353       -3.16770115
 C           -1.08557594        2.86955354       -3.08781272
 C            1.88065322        0.18238324       -3.63264643
 C            1.16943964        1.40031853       -3.95825998
 C            1.13328198       -2.18109103       -3.76060749
 C           -0.26436947       -2.49230124       -3.48875943
 C            1.18226262       -0.86553536       -4.34764316
 C           -1.72814003       -0.72905028       -2.64437128
 C           -1.92783734        0.65931296       -2.56646816
 C           -1.21016695        1.52393544       -3.41707248
 C           -0.20514944        1.00100641       -4.22498792
 C           -1.02391516       -1.27786870       -3.71040506
 C           -0.19079416       -0.41409946       -4.51337900
