   70
C70 / DATE: 7/ 1/2024 / Origin: Program Fullerene / C70 from database
 C            1.61043768        0.06816690        4.81275975
 C            0.78073791       -1.11770283        4.69589056
 C            1.36686499       -1.97676104        3.68201864
 C            2.64343351       -0.01385327        3.79624309
 C            2.56906306       -1.32221239        3.18188924
 C            2.52269242        1.14083711        2.93276057
 C            0.77953998        1.21741327        4.50445775
 C            1.34183818        1.88249285        3.34104990
 C           -0.59304631       -0.68705035        4.53181418
 C           -0.59793011        0.76867834        4.44497793
 C           -1.41981128       -1.42696537        3.69670744
 C            0.53697063       -2.64071013        2.77773273
 C           -0.84710632       -2.47360180        2.85628621
 C            1.09802918       -3.10622652        1.59180148
 C            2.86590213       -1.43453194        1.82816339
 C            2.36413701       -2.54356681        1.15544289
 C            2.74887238        0.96861321        1.57496759
 C            3.16646304       -0.27696293        1.09932686
 C            2.15197408        1.85861886        0.68844460
 C            0.48191770        2.36284183        2.35500311
 C            0.94849716        2.47356995        1.04562576
 C           -1.45096744        1.39847655        3.54780285
 C           -0.89460657        2.32921029        2.57483045
 C           -2.45331372       -0.75559517        2.92640904
 C           -2.48043771        0.62924891        2.86989131
 C           -1.65946704       -2.56569859        1.65047402
 C           -2.66095824       -1.51687671        1.70901371
 C            0.26568388       -3.28375670        0.41068353
 C           -1.05935449       -2.85543322        0.42587890
 C            2.39815501       -2.58663007       -0.29491317
 C            1.08837916       -3.01199789       -0.75628057
 C            3.47517365       -0.39242456       -0.25326849
 C            3.05672418       -1.58146568       -0.98023782
 C            2.55445280        1.85342869       -0.64510543
 C            3.25766163        0.75024927       -1.12869915
 C            1.91103200        2.69933925       -1.54275723
 C            0.07287421        2.89459682        0.04654230
 C            0.58864069        3.19490544       -1.20366099
 C           -1.79864022        2.36242236        1.43504779
 C           -2.74854693        1.28062757        1.59981373
 C           -1.28303994        2.59985491        0.16448249
 C           -2.99646767       -0.87062588        0.52863469
 C           -3.06887633        0.52616167        0.48059782
 C           -1.63898473       -2.36812218       -0.75398753
 C           -2.77717596       -1.55585894       -0.65997957
 C            0.50376408       -2.38842034       -1.85098171
 C           -0.88297126       -2.37042587       -1.93450152
 C            2.53745084       -1.15065693       -2.26610402
 C            2.95703124        0.22336670       -2.45241241
 C            1.25422545       -1.52569995       -2.65856076
 C            1.91148643        2.36556463       -2.95569630
 C            2.26063282        1.01441820       -3.35204541
 C           -0.26059505        3.04022148       -2.37048253
 C            0.59121174        2.66119381       -3.48326609
 C           -1.98027773        2.11928195       -0.95235514
 C           -2.97383491        1.14314863       -0.76439838
 C           -1.50130327        2.42110950       -2.23751760
 C           -3.32525790       -1.01129507       -1.81319341
 C           -3.46274451        0.43190811       -1.85234149
 C           -1.46573223       -1.97347332       -3.12987330
 C           -2.80839403       -1.43710175       -3.09370321
 C            0.61849308       -0.80707774       -3.67594049
 C            1.11104665        0.45084629       -4.04511022
 C            0.18155469        1.54360627       -4.30981556
 C           -0.68071439       -1.15680716       -4.04035041
 C           -2.05515274        1.80492637       -3.36140819
 C           -3.15107583        0.87800507       -3.19003565
 C           -2.87064050       -0.30026823       -3.99344452
 C           -1.17164435        1.25581720       -4.38514086
 C           -1.55397558       -0.12731095       -4.57589719
