   70
C70 / DATE: 7/ 1/2024 / Origin: Program Fullerene / C70 from database
 C            1.31460896        0.01115148        4.31362575
 C            2.50680322       -0.34625679        3.58582324
 C            2.35881504       -1.72426668        3.13424835
 C            0.47594661       -1.17214552        4.39398495
 C            1.03628789       -2.17107721        3.49939115
 C           -0.90295248       -0.75994393        4.18860826
 C            0.49741299        1.09120222        3.80644195
 C           -0.88459986        0.63665387        3.78315832
 C            0.94957920        1.89250103        2.75872687
 C            2.87910849        0.44764510        2.43156016
 C            2.09568632        1.53288593        2.02765556
 C            2.74092961       -1.76780222        1.74346583
 C            3.33327509       -0.48575545        1.42166976
 C            1.89188641       -2.34707356        0.80831422
 C            0.20311270       -2.73468095        2.53691629
 C            0.61862777       -2.80979215        1.19174382
 C           -1.74698549       -1.63156265        3.52336086
 C           -1.15512821       -2.76931438        2.83840531
 C           -2.73646992       -1.08388035        2.61697798
 C           -1.71283283        1.08617048        2.75280326
 C           -2.52236928        0.17668385        2.06037472
 C            0.00606561        2.72429547        2.17172143
 C           -1.38514622        2.29792777        2.16171393
 C            0.28926947        3.35280109        0.90145092
 C            2.27473889        2.01297990        0.72107893
 C            1.46336111        3.04732195        0.23462673
 C            3.30085087       -0.07300732        0.10283778
 C            3.08204473        1.27485080       -0.15720588
 C            2.15814223       -2.09148101       -0.53634381
 C            2.96872608       -1.00383982       -0.87931285
 C            1.38729042       -2.71274306       -1.50717166
 C           -0.26373278       -3.30036847        0.21098864
 C            0.09775673       -3.25238013       -1.13082808
 C           -2.09911605       -3.19383595        1.83415783
 C           -3.13893848       -2.17699902        1.76237390
 C           -1.61926035       -3.42587574        0.49178301
 C           -3.37899593       -1.90059362        0.36898610
 C           -2.58104594       -2.82705331       -0.41782951
 C           -2.91913279        0.44093810        0.73328566
 C           -3.46495489       -0.58712238       -0.06198245
 C           -1.94926150        2.64633511        0.87707548
 C           -0.95291357        3.41667728        0.14604654
 C           -2.72686333        1.72481130        0.19301425
 C           -0.90890072        3.33975556       -1.24636152
 C            1.54614789        3.42676628       -1.09940479
 C            0.32381196        3.47391803       -1.88850679
 C            3.33060002        1.73624435       -1.44371433
 C            2.59272878        2.87679707       -1.93456247
 C            3.09157438       -0.62706243       -2.21496870
 C            3.39667762        0.76235630       -2.52007504
 C            1.24461112       -2.10117808       -2.81790784
 C            2.09194734       -1.06645264       -3.17195814
 C           -0.88050930       -2.79437448       -2.11118941
 C           -2.16035375       -2.43205530       -1.68796694
 C           -0.17729584       -1.96180179       -3.07502722
 C           -3.54393643       -0.42137208       -1.43605726
 C           -2.78972671       -1.33461389       -2.28139275
 C           -2.94930758        1.96380901       -1.15888193
 C           -1.94995897        2.69826461       -1.92030131
 C           -3.44388790        0.90059241       -2.00007656
 C           -0.70519700       -0.71947172       -3.41468573
 C           -2.07041359       -0.52674747       -3.25465934
 C           -1.64686604        1.91328663       -3.10885175
 C           -2.58827866        0.81983010       -3.17300795
 C            0.57089729        2.71090856       -3.10004871
 C            1.99900834        2.50778607       -3.21086270
 C            2.48196073        1.19397319       -3.56537376
 C            1.51823475        0.12835944       -3.76377249
 C           -0.31560252        1.69253798       -3.43451350
 C            0.15240824        0.37496324       -3.60359457
