   70
C70 / DATE: 7/ 1/2024 / Origin: Program Fullerene / C70 from database
 C            1.30354394       -0.03090134        4.38241258
 C            2.58304658       -0.32406813        3.78298510
 C            2.57418710       -1.72037542        3.38294135
 C            0.47152211       -1.22257843        4.26730999
 C            1.20814897       -2.20138032        3.49813711
 C           -0.82568947       -0.79476260        3.78687821
 C            0.52923091        1.07766262        3.86022527
 C           -0.85391404        0.64939612        3.92031921
 C            0.96861712        1.77609237        2.73040740
 C            3.00224355        0.45284278        2.63693570
 C            2.25491438        1.55074420        2.21253856
 C            3.23628463       -1.82049432        2.09245547
 C            3.51337495       -0.46837076        1.63383072
 C            2.75653307       -2.74574627        1.18231421
 C            0.61551897       -2.78499459        2.38278955
 C            1.45646926       -3.35112032        1.42588106
 C           -1.35190338       -1.37111710        2.63252393
 C           -0.70414540       -2.46079357        2.03785666
 C           -2.35754843       -0.68682733        1.93815200
 C           -1.78279301        1.35188469        3.17967870
 C           -2.70006885        0.60494698        2.33994773
 C            0.02722513        2.51250259        1.99512418
 C           -1.31613984        2.46227313        2.37229654
 C            0.38341820        3.12222989        0.78745691
 C            2.59408607        2.08831154        0.97835184
 C            1.66687526        2.96071191        0.29068444
 C            3.36108572       -0.13139354        0.28764897
 C            3.20504998        1.21552451       -0.01353746
 C            2.80836893       -2.42629809       -0.22930650
 C            2.92701614       -1.09502039       -0.63175826
 C            0.92312536       -3.76625774        0.14113242
 C            1.84055009       -3.28825809       -0.88361099
 C           -1.28747457       -3.06944839        0.93147552
 C           -0.44564496       -3.70068939       -0.07188216
 C           -2.86029927       -1.19426854        0.73536426
 C           -2.37251439       -2.39823528        0.24137774
 C           -3.54818623       -0.35604280       -0.14219050
 C           -3.22027348        1.54471781        1.36472544
 C           -2.35064812        2.71393462        1.38608750
 C           -3.69424021        1.05865771        0.15669866
 C           -0.60126480        3.59961263       -0.07571591
 C           -2.00358619        3.33753349        0.19874938
 C           -0.39999123        3.49959840       -1.51478112
 C            1.85959852        2.77178614       -1.13891879
 C            2.71768964        1.61094453       -1.31718834
 C            0.78923265        2.95861415       -2.00895156
 C            2.42572568       -0.71097460       -1.88512370
 C            2.35542480        0.64114159       -2.24095947
 C            1.35289514       -2.91156465       -2.12336693
 C            1.82606571       -1.66894317       -2.70391124
 C           -0.95572735       -3.33591880       -1.38403706
 C           -2.15010573       -2.53476258       -1.19115056
 C           -0.07366870       -3.00452667       -2.40078963
 C           -3.31841796       -0.48937843       -1.57266410
 C           -2.41367574       -1.44823656       -2.02380467
 C           -3.45144340        1.80243257       -1.06915582
 C           -2.63422144        2.92746206       -1.04549146
 C           -1.68002633        3.14920635       -2.11913634
 C           -3.33052791        0.84154234       -2.15471779
 C           -1.70926084        2.33708291       -3.24453848
 C           -2.50335203        1.11603908       -3.23261075
 C            0.78696830        2.25952026       -3.21506742
 C            1.57574162        1.04063149       -3.32694320
 C           -0.46234517        2.04685112       -3.92298634
 C            0.83126690       -1.26000501       -3.67395196
 C           -0.41256666       -1.92331561       -3.30911816
 C           -1.56215034       -1.15953367       -3.09894797
 C           -1.68877242        0.04863370       -3.78469906
 C            0.79206311        0.06532421       -4.06846339
 C           -0.50052060        0.66021198       -4.35421719
