   70
C70 / DATE: 7/ 1/2024 / Origin: Program Fullerene / C70 from database
 C            1.17603191       -0.10447822        4.55586108
 C            2.49310599       -0.32831240        3.99872102
 C            2.45618793       -1.61345300        3.31845754
 C            0.35908333       -1.25787094        4.20617550
 C            1.07331870       -2.01745233        3.20888733
 C           -0.94931642       -0.77342603        3.86116017
 C            0.43693650        1.08711362        4.17660372
 C           -0.93170285        0.67721681        3.93566452
 C            1.01564886        2.02539460        3.33323189
 C            3.04843316        0.64392354        3.07199027
 C            2.35405709        1.81126368        2.79395322
 C            3.20789546       -1.47848208        2.10071498
 C            3.64663110       -0.09713688        1.97854309
 C            2.73897244       -2.09375101        0.95473524
 C            0.51091325       -2.16685655        1.93716346
 C            1.35430757       -2.32814588        0.82829595
 C           -1.61580845       -1.33888864        2.78477888
 C           -0.85823990       -1.90824209        1.74397930
 C           -2.81820450       -0.72762014        2.47178311
 C           -1.71834094        1.36291776        3.01502102
 C           -2.89123401        0.71625666        2.64721679
 C            0.20383212        2.63597973        2.29264706
 C           -1.09012082        2.18363262        2.06495714
 C            2.37727866        2.34047970        1.44376100
 C            1.06461354        2.90214847        1.15655091
 C            3.70852798        0.45265526        0.69495407
 C            3.06122697        1.67108256        0.42860973
 C            3.47489856       -1.81368946       -0.18212074
 C            3.94213200       -0.44683401       -0.34888416
 C            3.00312016       -2.29285042       -1.45238053
 C            0.78807927       -2.51803400       -0.43923193
 C            1.61426769       -2.67869470       -1.54919876
 C           -1.40739006       -2.00359397        0.45255723
 C           -0.56785881       -2.25103420       -0.64466575
 C           -3.47676145       -1.05292958        1.23349290
 C           -2.77053427       -1.73499113        0.25039182
 C           -3.66727947        1.25178069        1.55389363
 C           -4.23765509        0.12079206        0.85029117
 C           -1.62240712        2.29838458        0.77437241
 C           -2.97480576        2.06211273        0.57898455
 C            0.55939614        2.79530169       -0.13577223
 C           -0.76757835        2.39180856       -0.33032774
 C            2.76373558        2.03466834       -0.88455080
 C            1.47604841        2.65314249       -1.16634020
 C            3.69494066       -0.06437545       -1.72587359
 C            3.24691507       -1.24813115       -2.43426358
 C            3.08617867        1.14936940       -1.98916233
 C            1.15368944       -2.21488250       -2.83903192
 C            2.06723491       -1.16518572       -3.27062359
 C           -1.07126146       -2.20485973       -1.95437014
 C           -0.20024863       -2.01143778       -3.03365320
 C           -3.28956531       -1.71184380       -1.04308313
 C           -2.43953277       -2.06511019       -2.16026507
 C           -4.27484189        0.46130894       -0.55104956
 C           -3.44202759        1.64968130       -0.72837998
 C           -4.11525965       -0.57602191       -1.45264587
 C           -1.22470072        2.03984067       -1.61658246
 C           -2.57685206        1.70568051       -1.81929085
 C            1.03047414        2.19518384       -2.46155309
 C            1.99858833        1.22595950       -2.95747581
 C            1.54093346        0.07974581       -3.61467415
 C           -0.31775376        1.96602257       -2.68801130
 C           -0.54549006       -1.10180416       -4.02656912
 C            0.25595653        0.10031402       -4.15030256
 C           -0.62811047        1.19888358       -3.80227540
 C           -2.90906494       -1.30559652       -3.30654434
 C           -3.71964845       -0.22013652       -2.79463377
 C           -2.95414666        1.00031256       -2.96278643
 C           -1.92773454       -0.70944693       -4.18581913
 C           -1.98211433        0.73524121       -3.99600846
