   70
C70 / DATE: 7/ 1/2024 / Origin: Program Fullerene / C70 from database
 C            1.31343537       -0.14073005        4.51970196
 C            2.58752159       -0.31100920        3.84643661
 C            2.55432546       -1.58648042        3.15557747
 C            0.46241296       -1.26620559        4.15953516
 C            1.20884137       -2.11947436        3.26204252
 C           -0.80824129       -0.73819797        3.70905447
 C            0.55253289        1.07480286        4.29300275
 C           -0.81945888        0.68004062        4.02152424
 C            1.12140510        2.11938776        3.57016828
 C            3.02413560        0.69506217        2.89533338
 C            2.37638291        1.92147986        2.85159802
 C            3.10486026       -1.39427313        1.82324898
 C            3.35213692        0.02617585        1.64489571
 C            2.53428514       -2.09602677        0.77065072
 C            0.60736289       -2.56951861        2.09520783
 C            1.44398278       -2.92276328        1.04641569
 C           -1.33448034       -1.17123889        2.49237218
 C           -0.71438435       -2.21401593        1.79632675
 C           -2.28894211       -0.38387626        1.84806631
 C           -1.63669269        1.51329463        3.27423139
 C           -2.52963751        0.91501089        2.30114512
 C            0.27197310        2.97881745        2.75867994
 C           -1.08506686        2.71651968        2.66316337
 C            2.27128304        2.61230798        1.58102483
 C            1.00994101        3.33419795        1.56070270
 C            3.01243179        0.62780219        0.43122249
 C            2.70087179        1.99222374        0.40977517
 C            2.66262671       -1.57190747       -0.51305936
 C            2.70220103       -0.18357832       -0.67143043
 C            2.29119472       -2.37666457       -1.58472832
 C            0.89473136       -3.66226433        0.01419243
 C            1.50945649       -3.56347427       -1.29447319
 C           -1.26493044       -2.65822406        0.58886716
 C           -0.54344902       -3.58590017       -0.16810663
 C           -2.77580260       -0.76696006        0.59865047
 C           -2.30276733       -1.93374515       -0.00722632
 C           -3.50527990        0.15455604       -0.15369718
 C           -2.84639461        1.95296812        1.34011509
 C           -1.75333179        2.90673930        1.38593627
 C           -3.34373432        1.57082775        0.11015907
 C            0.35656696        3.47770823        0.33890202
 C           -1.00453545        3.14383661        0.23143732
 C            2.33082112        2.58543926       -0.79060942
 C            1.16245126        3.45313539       -0.79387458
 C            2.25841218        0.39505252       -1.86489211
 C            2.26806169        1.77658960       -1.98959099
 C            1.73528422       -1.76282292       -2.77769030
 C            1.58527636       -0.38154418       -2.81499849
 C            0.45938509       -3.67196038       -2.28793748
 C           -0.81357561       -3.74618555       -1.58690538
 C            0.66616514       -2.62005892       -3.26788546
 C           -2.73440724       -2.26191942       -1.29537332
 C           -1.91617152       -3.11555738       -2.13909956
 C           -3.57777594        0.00830130       -1.59277810
 C           -3.30946108       -1.23058053       -2.14545522
 C           -2.77653557        2.15808008       -1.09103135
 C           -1.58220626        2.87072471       -1.01956894
 C           -2.97496667        1.20423354       -2.17558894
 C            0.55536704        3.37265191       -2.10063997
 C            1.31140098        2.40239738       -2.87662093
 C           -0.84231758        3.01740042       -2.18644208
 C            0.58745040        0.18631165       -3.62039878
 C           -2.01190873        1.09112173       -3.18302939
 C            0.36321160        1.55590951       -3.56637171
 C           -0.97560193        2.02283728       -3.23946439
 C           -0.44401210       -2.04061789       -3.86249216
 C           -1.76931747       -2.45085327       -3.42443510
 C           -2.62575893       -1.27821357       -3.42044390
 C           -0.47074792       -0.60254395       -4.05952411
 C           -1.82829226       -0.13455910       -3.82350030
