   70
C70 / DATE: 7/ 1/2024 / Origin: Program Fullerene / C70 from database
 C            1.16892784       -0.01776833        4.28010234
 C            2.42479401       -0.32930144        3.64049174
 C            2.36879119       -1.72077600        3.22000260
 C            0.32486175       -1.20085065        4.20352614
 C            1.00193233       -2.17141833        3.37038215
 C           -1.00360613       -0.77019328        3.81589973
 C            0.39677833        1.09760737        3.77611091
 C           -0.99402978        0.68225455        3.72981060
 C            0.88947295        1.88633471        2.74035515
 C            2.83340641        0.45596519        2.49064861
 C            2.00792843        1.46801246        2.00221614
 C            2.97387347       -1.80149030        1.90795148
 C            3.42962851       -0.46678318        1.54784178
 C            2.37063256       -2.58001920        0.92588469
 C            0.33949285       -2.67131494        2.25489685
 C            1.08389548       -3.08940588        1.14364692
 C           -1.69580132       -1.48635768        2.84840633
 C           -1.04917315       -2.51500966        2.15256676
 C           -2.81540188       -0.88073614        2.28835123
 C           -1.85385493        1.31494394        2.83149856
 C           -2.88115187        0.57293735        2.25158007
 C            0.00115268        2.78682463        2.17159073
 C           -1.42324684        2.48641825        2.21082431
 C            0.29972865        3.37540801        0.88465803
 C            2.16591023        1.87640161        0.67069735
 C            1.42127009        2.96083598        0.18451321
 C            3.45584001       -0.12019535        0.20407019
 C            3.02053856        1.14952124       -0.17775334
 C            2.82747740       -2.41530184       -0.37875587
 C            3.44488384       -1.14886851       -0.73716059
 C            2.00825656       -2.84151311       -1.50225616
 C            0.44816282       -3.78506581        0.11894840
 C            0.82851660       -3.52152244       -1.25708734
 C           -1.74213053       -3.19848010        1.15770915
 C           -0.99547248       -3.92037401        0.14666512
 C           -3.38188660       -1.39240702        1.05186672
 C           -2.85287933       -2.54283648        0.49029538
 C           -3.42378461        0.96075338        0.95783049
 C           -3.67196490       -0.25380026        0.19679817
 C           -2.00114045        2.89810784        0.93942682
 C           -0.95298943        3.54811497        0.16578144
 C           -2.92727643        2.08192313        0.29750773
 C           -0.95668606        3.44795701       -1.22317956
 C            1.49860948        3.32327660       -1.15437006
 C            0.26341536        3.50461079       -1.90348417
 C            3.14136139        1.49965182       -1.51885720
 C            2.45327793        2.66915983       -2.01686118
 C            3.08999271       -0.86112521       -2.11751389
 C            2.01045182       -1.76221173       -2.47631555
 C            3.01130963        0.45952196       -2.52406813
 C            0.80193545       -1.23229051       -2.92820771
 C           -0.37020758       -3.10698148       -1.96195480
 C           -1.50384106       -3.51267370       -1.15539615
 C           -2.57510510       -2.55958581       -0.93509149
 C           -0.39855852       -1.86164222       -2.58269717
 C           -3.32057467       -0.28261810       -1.14846454
 C           -2.57043810       -1.35783843       -1.63920484
 C           -1.59362379       -1.14380983       -2.62106295
 C           -3.04275095        2.14704394       -1.08968965
 C           -2.08355144        2.92725627       -1.85735558
 C           -3.31685748        0.92571150       -1.83367002
 C           -1.66822562       -0.02006484       -3.43169320
 C           -1.94817294        2.29394284       -3.15718736
 C           -2.62848125        1.01175137       -3.10371971
 C            0.42254844        2.83615109       -3.18980940
 C            1.76318816        2.28803314       -3.23934940
 C            1.92143954        0.85449276       -3.39801274
 C            0.78440690        0.04960882       -3.48838702
 C           -0.62009721        2.07088110       -3.68722304
 C           -0.43512797        0.63121634       -3.83551421
