   70
C70 / DATE: 7/ 1/2024 / Origin: Program Fullerene / C70 from database
 C            1.21294244       -0.03892992        4.57477540
 C            2.57549423       -0.30797667        4.15632169
 C            2.60755121       -1.64739761        3.59032111
 C            0.41427387       -1.21308075        4.26184508
 C            1.23707797       -2.12273817        3.49587732
 C           -0.82638579       -0.75950783        3.67632284
 C            0.52082217        1.12057500        4.03775809
 C           -0.79383470        0.68690009        3.60021060
 C            1.21477796        2.04567570        3.27257495
 C            3.21393599        0.58767647        3.20913182
 C            2.58604026        1.77814064        2.85284976
 C            3.41632293       -1.60702543        2.38494003
 C            3.84552951       -0.23005579        2.18518135
 C            3.01364241       -2.36489538        1.29247137
 C            0.76633887       -2.59039737        2.27064750
 C            1.68852872       -2.96712760        1.29861055
 C           -1.35343053       -1.43905034        2.58970291
 C           -0.56476788       -2.36940940        1.89711120
 C           -2.39881748       -0.82432289        1.90983046
 C           -1.40341361        1.28651900        2.49923671
 C           -2.41444193        0.57447490        1.84779005
 C            0.53309207        2.70583786        2.17394543
 C           -0.75903224        2.32786945        1.81555854
 C            2.74990226        2.30695539        1.50816945
 C            1.49913183        2.93340237        1.11766091
 C            3.98771362        0.26932092        0.89455651
 C            3.47107173        1.58975094        0.56583725
 C            3.26938954       -1.88332246       -0.05529838
 C            3.75030852       -0.59797997       -0.24946660
 C            1.25799499       -3.09758475       -0.08113422
 C            2.20668692       -2.37989632       -0.91136363
 C           -1.01226666       -2.83331225        0.65538513
 C           -0.09197922       -2.99208281       -0.38652883
 C           -3.07658034       -1.57859363        0.96108525
 C           -2.36259076       -2.68196421        0.34903505
 C           -3.86703399       -0.92455433       -0.06593838
 C           -3.14226340        1.22415473        0.85771547
 C           -3.85204450        0.45745386       -0.15206811
 C           -1.22943930        2.70566329        0.55414517
 C           -2.53492866        2.36778317        0.20805770
 C            1.05583004        2.85306090       -0.19722449
 C           -0.30468350        3.04234909       -0.44348510
 C            3.00399704        1.55626805       -0.80842153
 C            3.19326898        0.21390575       -1.31644150
 C            1.84318804        2.22959820       -1.17418765
 C            1.70978793       -1.59326350       -1.94529055
 C            2.21325872       -0.30266035       -2.15697263
 C           -0.44906006       -2.62934941       -1.68876465
 C            0.46741621       -1.93070592       -2.48437554
 C           -2.79203031       -2.77547220       -1.03311354
 C           -3.75056489       -1.70843168       -1.27926606
 C           -1.78372008       -2.70992969       -2.07020400
 C           -3.36663341       -1.04757549       -2.51364021
 C           -2.28832190       -1.82688053       -3.10436007
 C           -3.63379866        1.10326414       -1.44006303
 C           -2.94456139        2.36126365       -1.18480226
 C           -3.31603084        0.34532265       -2.57159634
 C           -0.71571114        3.18029734       -1.76597761
 C           -2.08602124        2.87519125       -2.14099733
 C            1.25090991        1.89347018       -2.39248496
 C            1.45280588        0.59914520       -2.90238660
 C            0.15275653        2.64860699       -2.79617845
 C            0.03148719       -1.24191501       -3.61406127
 C           -1.38507343       -1.19317770       -3.94178003
 C            0.59208086        0.07135633       -3.86095175
 C           -2.63947127        0.94502181       -3.63208963
 C           -2.06155976        2.26603080       -3.45779970
 C           -0.67669762        2.20808243       -3.89851111
 C           -1.68793242        0.15373339       -4.39291734
 C           -0.44023441        0.89644542       -4.45451952
