   70
C70 / DATE: 7/ 1/2024 / Origin: Program Fullerene / C70 from database
 C            1.21435655       -0.22110724        4.66193938
 C            2.47926916       -0.47132368        3.99838984
 C            2.41716587       -1.79486795        3.40198520
 C            0.38081885       -1.40063652        4.49673876
 C            1.12479260       -2.37529585        3.72246054
 C           -0.91930668       -0.96806851        4.01518350
 C            0.43392897        0.93902188        4.26716774
 C           -0.89413769        0.48230922        3.89517912
 C            1.03168844        1.93959487        3.51727406
 C            2.92814179        0.45802549        2.97704072
 C            2.32415841        1.70224214        2.87810400
 C            2.80790760       -1.67747058        2.00636584
 C            3.17592224       -0.29480955        1.75950763
 C            2.08034080       -2.35943662        1.03600889
 C            0.45779870       -3.08887872        2.73800357
 C            1.07788765       -3.24033808        1.43151485
 C           -1.57411927       -1.71042806        3.03532162
 C           -0.96151354       -2.84829101        2.50980677
 C           -2.58728465       -1.08813187        2.31347746
 C           -1.57563803        1.08066306        2.83417768
 C           -2.61439286        0.36525228        2.25422768
 C            0.21820438        2.68003870        2.57232743
 C           -0.99121019        2.14130427        2.13018412
 C            2.28593075        2.35710158        1.58319575
 C            1.13715385        3.24163632        1.60311396
 C            2.86239605        0.26671829        0.52469236
 C            2.55281540        1.62428240        0.42527766
 C            2.06168334       -1.86768808       -0.26779698
 C            2.53441229       -0.57713839       -0.52982422
 C            1.31310042       -2.53720478       -1.23726359
 C            0.01861407       -3.56763741        0.49513290
 C           -1.24988027       -3.26311726        1.14394994
 C            0.17358845       -3.24424828       -0.84669408
 C           -2.97521001       -1.59602652        1.00605731
 C           -2.24593446       -2.62086128        0.41208872
 C           -3.11602933        0.75117227        0.95286159
 C           -3.41162933       -0.46191412        0.20522247
 C           -1.48753127        2.52475608        0.87476036
 C           -2.55283789        1.83091131        0.28862906
 C            0.63022658        3.67279580        0.39440958
 C           -0.78175181        3.47052512        0.12732773
 C            2.11886485        2.13242004       -0.80266889
 C            1.32615547        3.28267171       -0.81496058
 C            2.40587633       -0.04465073       -1.80811910
 C            2.17418175        1.33054382       -1.94786801
 C            1.46659839       -2.16602668       -2.56996439
 C            2.15992151       -0.92528980       -2.85949954
 C            0.32426159       -2.24448578       -3.46771621
 C           -0.98035122       -3.14755514       -1.61626167
 C           -2.20912677       -2.70896241       -0.97705507
 C           -0.91818619       -2.54280566       -2.93273270
 C           -3.22033061       -0.47207687       -1.17352738
 C           -2.76541835       -1.63500652       -1.78724376
 C           -1.98437548       -1.55270378       -3.01426866
 C           -2.79600498        1.94395300       -1.07875840
 C           -3.10595318        0.74419402       -1.84134843
 C           -0.94147009        3.52230246       -1.31710636
 C            0.39233215        3.49678815       -1.90474585
 C           -1.96837302        2.80239093       -1.90651492
 C            1.68087892        1.85115520       -3.14720419
 C            0.60856473        2.82598667       -3.09784534
 C            1.66199122       -0.43523146       -4.12762761
 C            0.42608764       -1.14609044       -4.40989249
 C            1.39794678        0.97756101       -4.26739192
 C           -1.73510692       -0.31161430       -3.59806586
 C           -2.38542145        0.81773014       -3.10365878
 C           -1.74375178        2.12407288       -3.17402722
 C           -0.51916312        2.25404085       -3.81644267
 C           -0.64221080       -0.16380582       -4.45197544
 C           -0.01231334        1.13706378       -4.59303545
