   70
C70 / DATE: 7/ 1/2024 / Origin: Program Fullerene / C70 from database
 C            1.64752779        0.08236412        4.40034568
 C            0.83824475       -1.10807811        4.22039692
 C            1.53882058       -1.98710107        3.30945235
 C            2.71856861        0.03849200        3.41980184
 C            2.65485975       -1.23811716        2.74713014
 C            2.63297883        1.23472674        2.61580929
 C            0.81655601        1.23020925        4.08912637
 C            1.51061146        2.02160318        3.09333112
 C           -0.50085023       -0.69559147        3.85935454
 C           -0.51362292        0.75456324        3.76395719
 C           -1.16795865       -1.42301913        2.88586985
 C            0.79092707       -2.78224271        2.44841005
 C           -0.59748728       -2.60595588        2.39721385
 C            1.44601898       -3.28281574        1.32777512
 C            2.86256360       -1.29667156        1.37114161
 C            2.50386993       -2.48063982        0.73527773
 C            2.81538241        1.14486843        1.24187413
 C            2.92381246       -0.11129451        0.62067668
 C            2.42258666        2.23938064        0.47567142
 C            0.75169856        2.69050583        2.14129951
 C            1.37426078        3.03953599        0.94302361
 C           -1.17329974        1.35285035        2.69408161
 C           -0.63677050        2.51915971        2.15018747
 C           -2.15573033       -0.78063875        2.14290544
 C           -2.06796233        0.59674843        1.93022634
 C           -2.99976406       -1.54288347        1.35038563
 C           -1.34585719       -3.39997734        1.53139342
 C           -2.65189514       -2.92999604        1.10495561
 C            0.68397237       -3.89331426        0.25298986
 C           -0.69501227       -4.00119065        0.37839922
 C            2.32682301       -2.50452355       -0.70387799
 C            1.26843901       -3.45541860       -1.00514912
 C            2.91124358       -0.17616756       -0.77859522
 C            2.40904109       -1.31587473       -1.41882156
 C            2.77955925        2.26094940       -0.86652007
 C            3.09719323        0.99742176       -1.50388184
 C            2.02421294        3.06877726       -1.81077117
 C            0.69913001        3.88846603        0.07263210
 C            0.93423771        3.79288317       -1.35621314
 C           -1.40247029        3.22617580        1.23341158
 C           -0.72550540        4.07675426        0.27071203
 C           -2.68983867        1.17647806        0.81602664
 C           -2.46951397        2.52622413        0.53885886
 C           -3.49177636       -0.98190082        0.10850337
 C           -3.28448856        0.36593781       -0.15714586
 C           -2.77819215       -3.17816352       -0.32184846
 C           -1.54704965       -3.78760396       -0.78203945
 C           -3.23240650       -1.94969684       -0.94748236
 C            0.45371578       -3.23041979       -2.10450372
 C           -0.99045650       -3.35298365       -1.97794096
 C            1.75969689       -1.21434347       -2.65736203
 C            0.72862398       -2.09520994       -2.96562291
 C            2.62425844        1.06184234       -2.86953911
 C            1.88687146        2.30311355       -3.03418355
 C            1.79414983       -0.01639195       -3.35727762
 C            0.55347706        1.97348897       -3.50750161
 C            0.53635019        0.55286446       -3.81961904
 C           -0.35932466        3.61335510       -2.00172685
 C           -1.38174334        3.91383480       -1.01499293
 C           -2.48121345        2.98616012       -0.84144864
 C           -0.55030669        2.55445991       -2.89096641
 C           -3.26019561        0.76517963       -1.49065480
 C           -2.74178428        2.07139249       -1.84786365
 C           -1.77200500        1.88349297       -2.92030084
 C           -2.64393540       -1.51303885       -2.13317927
 C           -1.60047377       -2.24336908       -2.70204783
 C           -0.54053790       -1.55025891       -3.41940615
 C           -0.63815192       -0.18051985       -3.65385033
 C           -2.81664296       -0.18233801       -2.49906114
 C           -1.81606041        0.48349081       -3.32121257
