   70
C70 / DATE: 7/ 1/2024 / Origin: Program Fullerene / C70 from database
 C            1.40105298        0.03722346        4.33013618
 C            2.58943158       -0.30511592        3.58575978
 C            2.53149366       -1.72638681        3.28115169
 C            0.56064403       -1.14654609        4.41245112
 C            1.28178479       -2.25166886        3.80498072
 C           -0.75606419       -0.79766003        3.89478145
 C            0.57860151        1.11878041        3.83734265
 C           -0.79057204        0.64061770        3.74367940
 C            1.04813027        1.94824295        2.82301568
 C            2.85896494        0.40519879        2.34793016
 C            2.06484078        1.48894102        1.97011408
 C            2.82464497       -1.88942254        1.86585770
 C            3.19836199       -0.58542549        1.34608533
 C            2.01620549       -2.72316037        1.09231963
 C            0.56786925       -3.15151685        3.02814284
 C            1.11484777       -3.56105674        1.74605762
 C           -1.32741346       -1.60158957        2.91573490
 C           -0.84427733       -2.90111299        2.79387163
 C           -2.01259887       -0.99986956        1.84772643
 C           -1.60594984        1.20898748        2.77505441
 C           -2.30002702        0.37326238        1.89398775
 C            0.13119826        2.86653578        2.33032959
 C           -1.27538589        2.49884695        2.36558244
 C            0.37825027        3.51650033        1.06199238
 C            2.06561695        1.87253941        0.62284239
 C            1.37951338        3.02368932        0.23477765
 C            2.92080736       -0.30449168        0.02055699
 C            2.57759292        0.99649113       -0.34495462
 C            1.85451434       -2.43428541       -0.27132094
 C            2.55511442       -1.35263860       -0.81241742
 C            0.84414206       -3.05214263       -1.02773654
 C            0.01449518       -4.14002898        1.00842683
 C           -1.21837787       -3.69795762        1.65026342
 C           -0.11030586       -3.84623482       -0.40069582
 C           -2.42768220       -1.76453954        0.74134533
 C           -2.04188415       -3.09776316        0.62629544
 C           -1.51058973       -3.55940872       -0.64027064
 C           -2.93034742       -1.12983723       -0.39729213
 C           -3.07250471        0.94660909        0.88615327
 C           -3.34094838        0.19213703       -0.32082884
 C           -1.92179362        3.08550648        1.20686639
 C           -0.91705628        3.85783279        0.49298684
 C           -2.84465923        2.33108002        0.49925767
 C           -1.01917578        4.02116272       -0.88118622
 C            1.39657370        3.42188728       -1.09738263
 C            0.20698006        4.04290579       -1.65761055
 C            2.47110112        1.30065352       -1.70454082
 C            1.94057657        2.52690709       -2.10069125
 C            2.50009626       -1.11091414       -2.17597162
 C            2.56579095        0.26669808       -2.63657486
 C            0.54842900       -2.56538662       -2.30240965
 C            1.49542468       -1.79511850       -2.96441289
 C           -1.84114029       -2.85466219       -1.78320274
 C           -2.68153757       -1.67469258       -1.65714299
 C           -0.78400088       -2.51865368       -2.72139902
 C           -2.35701024       -0.78465583       -2.76308244
 C           -1.26071116       -1.38688250       -3.50182411
 C           -3.11254597        1.06885248       -1.46070066
 C           -2.87915681        2.40768186       -0.95347889
 C           -2.00025324        3.24361063       -1.62714223
 C           -2.38758669        0.59151105       -2.55188414
 C           -0.06590631        3.41192756       -2.93452420
 C            1.08239430        2.59934247       -3.28005689
 C           -1.36288482        2.76637059       -2.84249188
 C           -1.47183831        1.42433388       -3.20865808
 C            1.79968847        0.35258188       -3.86524118
 C            1.06753038       -0.89184073       -4.01975672
 C           -0.34241394       -0.57011346       -4.13750922
 C            0.86129998        1.44534280       -4.01494848
 C           -0.47940455        0.87198828       -4.02451647
