   70
C70 / DATE: 7/ 1/2024 / Origin: Program Fullerene / C70 from database
 C            1.31675235       -0.18427881        4.54982429
 C            2.60846758       -0.44529562        3.94463665
 C            2.58073977       -1.78894168        3.39663562
 C            0.46855262       -1.34026963        4.31086244
 C            1.27097597       -2.36036559        3.66180818
 C           -0.74282732       -0.87974311        3.65264571
 C            0.58401165        0.99888277        4.13745445
 C           -0.71454374        0.57316109        3.64489571
 C            1.25315694        2.00439268        3.45596317
 C            3.08478736        0.45041104        2.90522753
 C            2.52151139        1.71095437        2.79123417
 C            3.04882071       -1.72282082        2.02100451
 C            3.29232406       -0.32986766        1.69563083
 C            2.43906559       -2.52266182        1.06641780
 C            0.68233595       -3.12986813        2.66997554
 C            1.44416118       -3.41393055        1.46912599
 C           -1.20596885       -1.55799146        2.52462045
 C           -0.66507374       -2.80418076        2.22232589
 C           -1.89294668       -0.84615053        1.53706169
 C           -1.29262764        1.23902457        2.57107152
 C           -2.12355662        0.51764645        1.72377881
 C            0.49484488        2.86003423        2.56037053
 C           -0.77667967        2.46781673        2.14132126
 C            2.45658822        2.32121675        1.47859141
 C            1.43326290        3.34272992        1.56798080
 C            2.85442170        0.16447913        0.46411966
 C            2.50743284        1.51460877        0.33964865
 C            2.46235872       -2.10915549       -0.26279742
 C            2.51372477       -0.73548791       -0.54914125
 C            1.97217699       -2.99530129       -1.21427000
 C            0.48456534       -3.88442529        0.48720558
 C           -0.80671443       -3.33925541        0.87875687
 C            0.83947362       -3.82925819       -0.84991911
 C           -2.17328374       -1.43975536        0.29787879
 C           -1.55272588       -2.64092938       -0.06459515
 C           -2.96949341       -0.76515500       -0.63311754
 C           -2.90237368        1.21436331        0.81842762
 C           -3.37959926        0.54102921       -0.37217698
 C           -1.32151639        3.07812619        1.00494433
 C           -2.49212485        2.55692734        0.45018127
 C            0.92358618        3.84962204        0.39046184
 C           -0.51791185        3.93556014        0.25009361
 C            1.91121054        1.97902293       -0.83721557
 C            1.40150562        3.27717469       -0.85233135
 C            2.01898790       -0.24277162       -1.76213517
 C            1.54116114        1.06533325       -1.83141400
 C            1.76113797       -2.53542214       -2.56964489
 C            1.76353777       -1.11142923       -2.81715173
 C           -0.19741562       -3.56342152       -1.82726213
 C           -1.38290148       -2.95410676       -1.41546016
 C            0.47577485       -3.05384321       -3.00549843
 C           -3.07047079       -1.25728870       -1.93148389
 C           -2.16538655       -2.30487493       -2.36529726
 C           -3.21167727       -0.32328984       -3.03487331
 C           -3.41720761        1.52026725       -1.44960258
 C           -2.78990232        2.73975224       -0.96496805
 C           -3.18378628        1.10111164       -2.75283597
 C           -0.76467630        4.09643826       -1.17170688
 C            0.44173198        3.65926310       -1.86398264
 C           -1.89044542        3.41490440       -1.77945236
 C            0.63689170        1.42226418       -2.84744367
 C           -2.06975327        1.67292141       -3.49891870
 C            0.04560055        2.68095422       -2.84823976
 C           -1.39547671        2.77068438       -2.98511621
 C            0.65340797       -0.82423752       -3.70556066
 C           -0.18375157       -2.01773268       -3.77083509
 C           -1.55478721       -1.87447276       -3.61923652
 C           -2.14587857       -0.60360254       -3.98030411
 C            0.05105461        0.42814025       -3.63383697
 C           -1.28661717        0.56236404       -4.01435764
