   70
C70 / DATE: 7/ 1/2024 / Origin: Program Fullerene / C70 from database
 C            1.53047673       -0.14693554        5.16144840
 C            0.65111828       -1.29041554        5.22386470
 C            1.14269963       -2.26113956        4.26297424
 C            2.52216615       -0.41252628        4.12974906
 C            2.15046493       -1.62656273        3.44314059
 C            2.62385742        0.78134215        3.34159959
 C            0.73710436        0.98009919        4.70534547
 C            1.54087759        1.67070587        3.73782141
 C           -0.66054315       -0.86207419        4.76027855
 C           -0.54564037        0.48597180        4.25658892
 C           -0.01247692       -2.77380105        3.58681388
 C           -1.12303917       -1.86927835        3.84771216
 C            0.12427980       -3.17855484        2.27443552
 C            1.95839378       -1.59563488        2.05467093
 C            1.08415333       -2.52360538        1.47209857
 C            2.85588970        0.66724808        1.97714303
 C            2.38327568       -0.47991442        1.30791966
 C            2.80353690        1.87507130        1.30704899
 C            0.90193474        2.33001500        2.70424746
 C            1.76799103        2.79962924        1.73812727
 C           -0.93842230        0.75880448        2.94024793
 C           -0.34341250        1.83786854        2.26779384
 C           -1.87537848       -1.48493175        2.74317958
 C           -1.67550028       -0.19500177        2.21080404
 C           -1.08014362       -3.49800294        1.68509468
 C           -2.14348482       -2.52150409        1.86283592
 C           -1.06859369       -3.89614818        0.31093689
 C            0.94168868       -2.54542126        0.07550621
 C            0.05279350       -3.45676149       -0.48560894
 C            2.08125551       -0.41065020       -0.07042331
 C            1.36707402       -1.44818577       -0.68915514
 C            2.79894454        1.88648250       -0.13022475
 C            2.40626341        0.73901084       -0.80566791
 C            1.21810500        3.40120409        0.55842659
 C            2.18595874        3.14923480       -0.49037424
 C           -0.78999283        2.17393609        0.98219237
 C           -0.12605338        3.19123132        0.28528116
 C           -1.97493327        0.05908469        0.85740639
 C           -1.61425971        1.28148382        0.28142963
 C           -2.66918788       -2.22675742        0.55528956
 C           -2.26132955       -3.32990364       -0.28240792
 C           -2.54237139       -0.93860828        0.04949670
 C           -0.48740740       -3.19828097       -1.79504954
 C           -1.92327045       -3.02153741       -1.63902326
 C            1.02035280       -1.35166049       -2.05637564
 C            0.14978387       -2.29804849       -2.63266907
 C            1.95438871        0.88304151       -2.11772186
 C            1.36001588       -0.19068487       -2.77641257
 C            1.76393694        3.31279842       -1.79005825
 C            1.86671474        2.16697387       -2.67207551
 C           -0.57535672        3.56443752       -0.97301015
 C            0.43103962        3.85385616       -1.98417550
 C           -1.97674621        1.55778768       -1.04292573
 C           -1.61290738        2.77798408       -1.60896042
 C           -2.60652064       -0.75676739       -1.34165803
 C           -2.44853680       -1.87178680       -2.19215064
 C           -2.47050686        0.53693757       -1.86117557
 C           -0.61159925       -1.91720646       -3.73352159
 C           -2.02036413       -1.65014702       -3.48638660
 C            0.88099647        0.00788314       -4.07735500
 C           -0.11661526       -0.88973833       -4.60620400
 C            0.94360766        2.41990265       -3.76085360
 C           -0.05176047        3.35412279       -3.25283562
 C           -1.40963600        2.88007854       -3.04687289
 C            0.49798397        1.34533083       -4.50402338
 C           -2.55244185        0.73572557       -3.24343785
 C           -2.35154898       -0.40139165       -4.11254339
 C           -1.26271741       -0.09418954       -5.02111515
 C           -1.85800045        1.85343548       -3.85737541
 C           -0.91842450        1.29503935       -4.81912147
