   70
C70 / DATE: 7/ 1/2024 / Origin: Program Fullerene / C70 from database
 C            1.42230472       -0.01320208        5.11904526
 C            0.58262865       -1.19392032        5.20065476
 C            1.22789936       -2.24498758        4.43700496
 C            2.54645818       -0.31910827        4.24809874
 C            2.47635756       -1.72481838        3.90514735
 C            2.56205770        0.66101516        3.17310332
 C            0.64840329        1.02912129        4.47396587
 C            1.45680216        1.57505413        3.40263819
 C           -0.68057801       -0.89221659        4.54513602
 C           -0.65218576        0.49040178        4.11972382
 C            0.24816348       -2.77519516        3.50496024
 C           -0.91440648       -1.90473477        3.53725706
 C            0.68232476       -3.22318504        2.26489195
 C            2.84470548       -2.10690940        2.62447204
 C            2.03362352       -3.09191150        1.93408505
 C            2.82144448        0.24371995        1.86301808
 C            3.17588671       -1.08574790        1.63563487
 C            2.33572411        1.01857801        0.79961585
 C            0.80073923        2.06029369        2.28709562
 C            1.50845426        2.10165567        1.09676314
 C           -1.15215944        0.80966702        2.86110084
 C           -0.57755155        1.88386463        2.19364871
 C           -1.47689161       -1.52388189        2.32256967
 C           -1.77474615       -0.17522752        2.08998614
 C           -0.24422800       -3.28173586        1.22797773
 C           -1.31325485       -2.37140829        1.22962310
 C            0.18752556       -3.82996223        0.02742196
 C            2.41106851       -3.01037951        0.53324483
 C            2.94575166       -1.67223097        0.32411325
 C            1.53751728       -3.52495381       -0.40793363
 C            2.32829552        0.50049879       -0.50362578
 C            2.42333260       -0.87935121       -0.69466635
 C            1.85781007        1.30282951       -1.54921168
 C            0.92244055        2.80025081        0.05284480
 C            1.40212783        2.58523849       -1.23293321
 C           -1.18199411        2.33188540        1.02956535
 C           -0.41740395        3.14619983        0.20995628
 C           -2.27692654        0.19613070        0.83770264
 C           -2.14802342        1.52947252        0.42241346
 C           -1.98377335       -2.06488373        0.04480985
 C           -2.54662687       -0.79481584       -0.10823113
 C           -0.66924111       -3.75135165       -1.13359354
 C           -1.82494587       -2.88578070       -1.06942560
 C            1.40391214       -2.83363527       -1.67364863
 C            1.72278321       -1.47942775       -1.74462922
 C            0.15155009       -3.28140805       -2.23938563
 C            1.41505076        0.68426684       -2.72523893
 C            1.08936147       -0.66929667       -2.68791611
 C            0.88153017        1.45869554       -3.75117527
 C            0.94036642        3.42444010       -2.24219030
 C            0.82801521        2.89569367       -3.58428848
 C           -1.06181077        3.79022561       -0.82941262
 C           -0.26437214        4.18784168       -1.97190055
 C           -2.66110054        1.93351687       -0.81879898
 C           -2.27941268        3.17803486       -1.33184000
 C           -3.10066698       -0.43219061       -1.33340136
 C           -3.18391222        0.97647957       -1.68802061
 C           -1.96740897       -2.31492718       -2.39291486
 C           -0.64072311       -2.32651610       -2.98010624
 C           -0.07883067       -1.10655131       -3.33259752
 C           -2.71819921       -1.16164246       -2.53417172
 C           -0.37642205        1.03347347       -4.34028179
 C           -2.92086892        1.07282723       -3.12041313
 C           -0.93101641       -0.15483034       -3.88498203
 C           -2.27372512       -0.16941944       -3.49822939
 C           -0.42261448        3.36847831       -4.15773897
 C           -1.11886441        4.13586370       -3.14179059
 C           -2.31938073        3.40429366       -2.76840009
 C           -1.23111719        2.20199716       -4.45761550
 C           -2.43703302        2.25973973       -3.64858135
