   70
C70 / DATE: 7/ 1/2024 / Origin: Program Fullerene / C70 from database
 C            1.21133954       -0.06482618        4.23097945
 C            2.51650608       -0.38657601        3.70745934
 C            2.44521337       -1.72346914        3.13013141
 C            0.38542041       -1.25127948        4.08754132
 C            1.06043814       -2.13444151        3.16326299
 C           -0.94758288       -0.80709824        3.74015072
 C            0.48011580        1.03725762        3.63958955
 C           -0.91323862        0.64322423        3.61019482
 C            1.00029603        1.71097763        2.53957956
 C            3.08849572        0.47375900        2.69334417
 C            2.32521678        1.49420757        2.12069579
 C            3.12437725       -1.67192431        1.85238485
 C            3.83076738       -0.40528647        1.81588894
 C            2.46405415       -2.09657123        0.70160003
 C            0.41331950       -2.44795710        1.97447483
 C            1.13790969       -2.55545237        0.77790180
 C           -1.67097621       -1.52308808        2.79344050
 C           -0.98131920       -2.39201119        1.93580143
 C           -2.84948190       -0.93215144        2.35360497
 C           -1.76664347        1.23463609        2.68249861
 C           -2.90968697        0.51893302        2.32587822
 C            0.12257947        2.43282284        1.73199494
 C           -1.25759096        2.19325862        1.79793693
 C            0.64012827        3.24339840        0.72915762
 C            2.77377346        2.05215276        0.91759013
 C            1.98906094        2.99558810        0.25811393
 C            4.21614642        0.08756632        0.58425853
 C            3.82691052        1.44250821        0.23235498
 C            3.00424882       -1.73422451       -0.53448425
 C            3.96834644       -0.72687876       -0.59148323
 C            2.36253775       -2.12216845       -1.70455987
 C            0.48607197       -2.99336838       -0.38153303
 C            1.08328599       -2.80061239       -1.62112022
 C           -1.63787489       -2.96538354        0.85458763
 C           -0.87964973       -3.26096371       -0.34705505
 C           -3.52399403       -1.43541701        1.17189070
 C           -2.94407850       -2.47028357        0.45344636
 C           -3.69164822        0.91324509        1.16746943
 C           -4.10296722       -0.29819184        0.47231770
 C           -2.09908920        2.74079896        0.82816832
 C           -3.30940286        2.03280726        0.44412408
 C           -0.17352254        3.56132973       -0.43062938
 C           -1.53280338        3.31522422       -0.37996362
 C            1.95464224        3.02258980       -1.20054815
 C            0.56503866        3.12138665       -1.59745008
 C            3.87842243        1.52836356       -1.21736198
 C            3.98494897        0.17253909       -1.73138256
 C            2.79491784        2.18908247       -1.91750762
 C            2.30989578       -1.20659593       -2.83816615
 C            2.98250475        0.00294109       -2.76446654
 C            2.21211185        1.23437778       -2.84768058
 C            0.26935812       -2.35144645       -2.74078713
 C            0.95045425       -1.21754542       -3.34028728
 C           -1.70373158       -2.91288520       -1.49712358
 C           -2.99749213       -2.46268724       -0.99946663
 C           -1.11453205       -2.30165388       -2.60571437
 C           -4.18649838       -0.30828488       -0.91546951
 C           -3.68150433       -1.45109216       -1.66205478
 C           -3.37269616        2.01314018       -1.00988582
 C           -2.16748620        2.65735017       -1.50978164
 C           -3.87172424        0.89643252       -1.66887225
 C            0.00789869        2.14899296       -2.42633289
 C            0.82497203        1.16212943       -2.99667037
 C            0.25774806       -0.01971967       -3.48478157
 C           -1.38157242        2.01770734       -2.47132009
 C           -1.80801973       -1.31770306       -3.31032672
 C           -3.16031644       -0.96201895       -2.92209398
 C           -3.25275877        0.48941003       -2.91640612
 C           -1.11536314       -0.09051875       -3.67713312
 C           -1.94422724        1.02163776       -3.25991444
