   70
C70 / DATE: 7/ 1/2024 / Origin: Program Fullerene / C70 from database
 C            1.36917150       -0.12598583        4.19896822
 C            2.45062418       -0.23819980        3.23411934
 C            2.44268222       -1.60824890        2.74597894
 C            0.50006961       -1.27835096        4.01703029
 C            1.15405642       -2.17729512        3.10299409
 C           -0.80606744       -0.78289976        3.65525918
 C            0.52746869        1.05395300        4.18548344
 C           -0.85213529        0.59336029        4.10808976
 C            0.92310004        2.14976406        3.43053145
 C            2.69843317        0.80301624        2.34348735
 C            2.00465478        2.00861368        2.46455696
 C            3.32773829        0.51630543        1.13673394
 C            2.95879373       -1.89933101        1.48298271
 C            3.52316633       -0.86972155        0.73218175
 C            2.46780108       -3.02906118        0.82648027
 C            0.41449521       -2.76826951        2.09342284
 C            1.15287944       -3.52756431        1.20304273
 C           -1.33839638       -1.10919226        2.40454709
 C           -0.75488541       -2.12701725        1.63967404
 C           -2.27683654       -0.24869057        1.82471407
 C           -1.81545845        1.42186288        3.56184570
 C           -2.70043817        0.86170453        2.55862324
 C           -0.08971844        3.01093953        2.84372718
 C           -1.43149288        2.74198580        3.08608534
 C            1.62557645        2.73258598        1.25956590
 C            0.33841287        3.35258883        1.49224182
 C            2.96829621        1.28115016       -0.04791943
 C            1.90881709        2.17219082        0.02009686
 C            3.46925265       -0.91157297       -0.72228553
 C            3.10341334        0.41660246       -1.19498748
 C            2.57633298       -3.14022166       -0.61922199
 C            2.95060749       -2.02865593       -1.37272462
 C            0.50881233       -4.04575795        0.02368381
 C            1.46656624       -3.96673118       -1.06440141
 C           -1.22139352       -2.34959761        0.33717463
 C           -0.71146104       -3.40721668       -0.41181677
 C           -2.55748771       -0.33556209        0.45089690
 C           -1.98853532       -1.37220353       -0.30219519
 C           -3.33521487        0.65310649       -0.17708817
 C           -3.28984174        1.98676431        1.87454855
 C           -2.40859313        3.12721803        2.08618851
 C           -3.51520980        1.88061251        0.45397344
 C           -0.59184822        3.39056592        0.46154470
 C           -1.94079035        3.54043222        0.77666338
 C           -2.93434211        3.06435667       -0.16060955
 C            0.92905237        2.16678883       -0.98134916
 C           -0.23183383        2.93496004       -0.81054378
 C            2.21421122        0.52851477       -2.25176982
 C            1.10634959        1.38799035       -2.14307040
 C            2.45377829       -1.87118875       -2.66888702
 C            2.19237941       -0.52597167       -3.15719169
 C            0.74254594       -3.57224539       -2.25141218
 C           -0.63063249       -3.27531110       -1.85299902
 C            1.37523262       -2.72769084       -3.14856120
 C           -2.14131961       -1.41236487       -1.69604539
 C           -1.30726516       -2.22740875       -2.46549631
 C           -3.45061024        0.65622500       -1.56195204
 C           -2.86070474       -0.41271562       -2.33984332
 C           -2.58793671        2.98408224       -1.49666452
 C           -1.17013811        3.00860686       -1.83413818
 C           -3.17668735        1.90244314       -2.25839695
 C            0.14796215        1.42051035       -3.17058135
 C           -2.31523143        0.17432825       -3.55660853
 C           -0.98884426        2.20789666       -3.02786166
 C           -2.27335312        1.60625537       -3.34606842
 C            1.13514597       -0.60858972       -4.13390462
 C            0.54903954       -1.93639831       -4.03680436
 C           -0.84860846       -1.75741501       -3.69566976
 C            0.05440747        0.34638605       -4.05491266
 C           -1.18801459       -0.41002011       -4.10315599
