   70
C70 / DATE: 7/ 1/2024 / Origin: Program Fullerene / C70 from database
 C            1.53328207        0.10219673        4.97894364
 C            0.74603667       -1.11623465        5.00119579
 C            1.48826903       -2.13582151        4.28406819
 C            2.65977074       -0.11622206        4.08607219
 C            2.66061499       -1.50531319        3.69466214
 C            2.58951884        0.88159691        3.04191593
 C            0.70871164        1.15195550        4.40215520
 C            1.42886908        1.71652560        3.28753416
 C           -0.59483561       -0.78742687        4.55195706
 C           -0.60525804        0.61059686        4.14449187
 C           -1.28802213       -1.70575898        3.77444576
 C            0.81312235       -2.88210498        3.23626496
 C           -0.56564409       -2.78630297        3.10825779
 C            2.66956381       -1.82092787        2.27736913
 C            1.63233300       -2.80462255        2.04024575
 C            2.85226334        0.53210769        1.71997297
 C            2.84954779       -0.81286953        1.32565908
 C            2.52150729        1.47440619        0.75984861
 C            0.71743928        2.14464314        2.17452565
 C            1.43911809        2.32124921        1.00710336
 C           -1.25599756        0.95967668        2.96149251
 C           -0.64412789        1.84641908        2.05489226
 C           -2.27494940       -1.20844813        2.83426870
 C           -2.30492754        0.14970617        2.52798842
 C           -1.15941913       -2.96500324        1.79396876
 C           -2.36629398       -2.16843260        1.74764813
 C            1.03137535       -2.80967226        0.78857384
 C           -0.35120203       -2.99983947        0.66437947
 C            2.53875534       -1.11438495       -0.00993626
 C            1.72601526       -2.22433145       -0.26551185
 C            2.84192272        1.20211343       -0.55836424
 C            2.68750576       -0.11974892       -0.99016777
 C            2.68111966        2.24824405       -1.45446691
 C            0.80469420        2.90682810       -0.07634621
 C            1.59992453        3.17696635       -1.18185035
 C           -1.29541269        2.15626492        0.84909259
 C           -0.56467727        2.66051923       -0.24123496
 C           -3.04176068        0.54255067        1.42233082
 C           -2.58323772        1.67609331        0.64360405
 C           -2.81868682       -1.71809658        0.51459063
 C           -3.45609951       -0.48087227        0.47943273
 C           -0.94831853       -2.80068054       -0.58249335
 C           -2.21576938       -2.20152100       -0.65176721
 C            1.26575150       -2.46207972       -1.54825377
 C           -0.12779411       -2.82709912       -1.70785608
 C            2.33322066       -0.39568479       -2.32308069
 C            1.61558823       -1.54789479       -2.61382132
 C            2.67453708        1.96261336       -2.86621942
 C            2.32969926        0.62113072       -3.27519808
 C            0.97424827        3.51761937       -2.43520698
 C            1.74662775        2.88730186       -3.49323063
 C           -1.14009295        2.67447633       -1.52782925
 C           -0.41369128        3.15819128       -2.61795552
 C           -3.07408289        1.49559149       -0.71008167
 C           -3.67867311        0.17057546       -0.79391426
 C           -2.32115632        1.97070662       -1.77624194
 C           -2.73141659       -1.79633836       -1.88479400
 C           -3.51572856       -0.57223130       -1.95278134
 C           -0.59151805       -2.28127852       -2.96899984
 C            0.48250079       -1.46544893       -3.52333210
 C           -1.90572063       -1.86348129       -3.07984844
 C            1.21082765        0.71264688       -4.20606361
 C            0.82603984        2.11008858       -4.29789694
 C           -0.51771857        2.47376301       -3.89858919
 C            0.20585127       -0.25190190       -4.15446244
 C           -2.55266744        1.44579798       -3.04776043
 C           -3.14529137        0.12664600       -3.16631970
 C           -2.20732364       -0.70766944       -3.89997340
 C           -1.50867385        1.52075441       -4.04981055
 C           -1.11998377        0.14718157       -4.34729143
