   70
C70 / DATE: 7/ 1/2024 / Origin: Program Fullerene / C70 from database
 C            1.34966992       -0.04901620        4.92074942
 C            0.55975167       -1.22171290        4.58229395
 C            1.40628296       -2.11694504        3.83538196
 C            2.58633947       -0.11742556        4.16175312
 C            2.66180819       -1.42631255        3.56194762
 C            2.63232071        1.03503810        3.28840892
 C            0.61771021        1.12211678        4.46854268
 C            1.44803925        1.84378507        3.53568837
 C           -0.66859597       -0.76579434        3.96446961
 C           -0.67264713        0.68423597        4.00568671
 C           -1.15556780       -1.38313467        2.80768951
 C            0.91624908       -2.63342443        2.57390480
 C           -0.37222702       -2.32475783        2.12160614
 C            2.90625874       -1.51903519        2.13391209
 C            2.01131816       -2.53684116        1.63083926
 C            3.06479131        0.90141328        1.97101120
 C            3.09361029       -0.36810217        1.36579372
 C            2.87923473        2.01674857        1.16654186
 C            0.85239454        2.47417345        2.44423084
 C            1.70408627        2.84149433        1.40803912
 C           -1.25150052        1.33377925        2.93036197
 C           -0.50529532        2.24013294        2.15765762
 C           -2.15272362       -0.70817375        2.10297073
 C           -2.29278353        0.66968705        2.31042843
 C           -2.67043592       -1.28287829        0.94379409
 C           -0.65588292       -2.59503214        0.77590762
 C           -1.86491186       -2.16445725        0.21390050
 C            1.68343868       -2.51448618        0.29130829
 C            0.41039925       -2.93096483       -0.06093745
 C            2.94019386       -0.47857285       -0.02461357
 C            2.34467728       -1.63142261       -0.56030390
 C            3.04771351        1.90338951       -0.26419768
 C            3.14999471        0.64039045       -0.83312477
 C            1.15411071        3.20419366        0.11806321
 C            2.16593952        2.88695455       -0.87223748
 C           -1.03825033        2.65955159        0.92395837
 C           -0.17817505        2.91933452       -0.14734643
 C           -3.07003428        1.41265879        1.44462417
 C           -2.38854033        2.42245746        0.65802483
 C           -3.78480937       -0.69003824        0.35565469
 C           -4.00567084        0.72113338        0.58722991
 C           -4.07258614       -0.93153057       -1.03887115
 C           -2.14022383       -2.44060695       -1.13668282
 C           -3.18092000       -1.78420357       -1.79076158
 C            0.17962062       -3.18957927       -1.39697057
 C           -1.15860352       -3.03359609       -1.92525287
 C            2.07078103       -1.71772536       -1.92898983
 C            1.11478451       -2.63880610       -2.36410911
 C            3.01096433        0.53077266       -2.21266934
 C            2.46391194       -0.68697354       -2.77995320
 C            1.77870496        2.69911694       -2.18692230
 C            2.43898395        1.65151502       -2.94165313
 C           -0.57319986        2.61669330       -1.45756815
 C            0.35824012        2.62516772       -2.49098144
 C           -2.81060131        2.24108568       -0.71904073
 C           -3.98008309        1.38528519       -0.70249625
 C           -4.10309041        0.36179706       -1.71213543
 C           -1.83238599        2.07077821       -1.69289751
 C           -2.90436373       -1.09587290       -3.04262472
 C           -3.11698083        0.30915259       -2.77142546
 C           -2.00887533        1.15646318       -2.74607349
 C           -1.03102989       -2.62038258       -3.31388796
 C            0.37628466       -2.37682026       -3.58395926
 C           -1.78010953       -1.46172466       -3.76343050
 C            1.62286385       -0.31398683       -3.91493551
 C            1.48398264        1.12706475       -3.89782088
 C            0.18219649        1.69205977       -3.58807057
 C           -0.92941245        0.85405786       -3.58212960
 C            0.49595279       -1.07031694       -4.19627988
 C           -0.81308716       -0.43302480       -4.12102085
