   70
C70 / DATE: 7/ 1/2024 / Origin: Program Fullerene / C70 from database
 C            1.22054798        0.02503291        4.44529541
 C            2.49262217       -0.22915979        3.81769152
 C            2.53656715       -1.65015621        3.53792030
 C            0.40262349       -1.17632517        4.29515767
 C            1.16297340       -2.11455487        3.51128143
 C           -0.88560128       -0.74355018        3.80252665
 C            0.41660532        1.11839656        3.94913393
 C           -0.94528347        0.66676768        4.12097263
 C            0.74984929        1.74678595        2.74334676
 C            2.79317893        0.45226866        2.57553647
 C            1.82583182        1.26661349        1.98250764
 C            3.32105705       -1.82634851        2.33731563
 C            3.51525857       -0.50060766        1.75263457
 C            2.95260398       -2.85955343        1.49168942
 C            0.65074070       -2.58181819        2.30332421
 C            1.54301760       -3.24050661        1.45977630
 C           -1.31897041       -1.15217979        2.53914462
 C           -0.51456238       -2.00417216        1.76278010
 C           -2.33131792       -0.40065722        1.92681050
 C           -1.92522059        1.41077760        3.51115280
 C           -2.81650219        0.72125778        2.60255865
 C           -0.24651542        2.50916195        2.12644730
 C           -1.49241386        2.56867499        2.76293130
 C           -0.14930258        2.80244196        0.75873614
 C            1.80625267        1.38948143        0.59016877
 C            0.81368567        2.16188767       -0.02603100
 C            3.46624863       -0.36223343        0.36966499
 C            2.76170438        0.71144883       -0.17979401
 C            3.41369532       -2.79348620        0.12348729
 C            3.71579099       -1.48567854       -0.42020338
 C            1.18014689       -3.48117590        0.08071672
 C            2.38609277       -3.37788933       -0.71615334
 C           -0.86324390       -2.24711441        0.42654942
 C            0.02077200       -2.91868037       -0.42431492
 C           -2.57856058       -0.55573510        0.55738949
 C           -1.99439759       -1.62898567       -0.11757709
 C           -3.25149658        0.43848383       -0.17577202
 C           -3.47855546        1.77391666        1.86261783
 C           -2.66661137        2.97671901        2.02580499
 C           -3.69755943        1.59593942        0.44895784
 C           -1.16538904        3.51943115        0.12761163
 C           -2.48622770        3.56280389        0.72236315
 C           -3.37757015        2.85623587       -0.17849434
 C           -1.37552696        3.33600424       -1.29344353
 C           -2.72078442        2.80245049       -1.46304916
 C            0.79164591        2.31258131       -1.42205032
 C           -0.36163163        2.77781299       -2.06180782
 C            2.77941408        0.87730943       -1.55922404
 C            1.78775551        1.72448728       -2.19296961
 C            3.27542853       -1.49877241       -1.80216860
 C            2.32999482       -2.59729477       -1.93953420
 C            2.96863754       -0.29115118       -2.40611500
 C           -0.06366616       -2.70726537       -1.79614479
 C            1.08567006       -2.33091987       -2.50225016
 C           -2.30894164       -1.83976563       -1.46201447
 C           -1.31108418       -2.43722842       -2.33169039
 C           -3.14904897        0.44608498       -1.56794681
 C           -2.85159409        1.65247075       -2.23020283
 C           -2.95639379       -0.77438774       -2.20559976
 C           -0.73797420        2.20785599       -3.27982510
 C           -2.06397510        1.62280545       -3.37311679
 C            1.43386397        1.10276235       -3.45923854
 C            1.91555797       -0.26501508       -3.40370071
 C            0.99953844       -1.31586188       -3.45628450
 C            0.18146206        1.34474122       -3.99933059
 C           -1.38836012       -1.78830392       -3.62528399
 C           -2.46257675       -0.81313787       -3.57015067
 C           -1.97681903        0.41295751       -4.15885943
 C           -0.20130247       -1.12610883       -4.13108626
 C           -0.58185423        0.22093043       -4.52057591
