   70
C70 / DATE: 7/ 1/2024 / Origin: Program Fullerene / C70 from database
 C            1.21900623        0.11026929        4.32051171
 C            2.51385482       -0.17361614        3.74275573
 C            2.55064939       -1.59493365        3.45827398
 C            0.39840046       -1.08547680        4.18569279
 C            1.18285553       -2.08000143        3.48871559
 C           -0.87145113       -0.68342616        3.62073758
 C            0.45615548        1.21331588        3.77832577
 C           -0.91603241        0.76386350        3.62437575
 C            1.00053499        2.00160583        2.76996030
 C            2.89783294        0.52271973        2.52767150
 C            2.05350016        1.49369693        1.99685481
 C            3.30561841       -1.77696129        2.23700193
 C            3.48936921       -0.45779771        1.63568069
 C            2.94232791       -2.82932598        1.41221932
 C            0.66809445       -2.68576165        2.34382224
 C            1.56513671       -3.30890684        1.47444777
 C           -1.36600208       -1.34326457        2.50903865
 C           -0.61025597       -2.34288207        1.87786215
 C           -2.40986545       -0.74145353        1.81400306
 C           -1.70990339        1.41227364        2.68091488
 C           -2.55311307        0.65246370        1.85994396
 C            0.14762673        2.93638246        2.20140985
 C           -1.28116008        2.66440775        2.23942586
 C            0.45139405        3.47736672        0.89290076
 C            2.08869664        1.74378358        0.62210962
 C            1.42431026        2.86037396        0.11367146
 C            3.33699052       -0.30764778        0.25663271
 C            2.66016365        0.80609919       -0.25066540
 C            3.30700643       -2.74334519        0.01566347
 C            3.50037156       -1.42497359       -0.55803397
 C            1.14418927       -3.63591773        0.12235297
 C            2.27257061       -3.41020350       -0.75374091
 C           -1.05257436       -2.85221753        0.65360493
 C           -0.11533257       -3.23942007       -0.30449841
 C           -3.06719163       -1.48756741        0.84258016
 C           -2.36688515       -2.61835348        0.26338935
 C           -3.80532469       -0.82015463       -0.21621472
 C           -3.32675008        1.30274515        0.89892445
 C           -3.84119226        0.56402710       -0.23944381
 C           -1.88144530        3.27088121        1.06328775
 C           -0.81047278        3.87806799        0.28769812
 C           -2.91671458        2.61132161        0.41701754
 C           -0.90426588        3.93512988       -1.09583183
 C            1.45415950        3.11723695       -1.25255447
 C            0.30824188        3.76073716       -1.87501916
 C            2.42944178        0.90085898       -1.62788869
 C            1.92826014        2.08663051       -2.15636905
 C            2.88738903       -1.44137656       -1.87131334
 C            2.05517656       -2.63410510       -1.95473684
 C            2.39440812       -0.25862479       -2.40628794
 C           -0.31706492       -2.91337365       -1.65327677
 C            0.76124023       -2.49749798       -2.44492158
 C           -2.69856090       -2.67274603       -1.14679048
 C           -3.54105321       -1.52865604       -1.45457774
 C           -1.61487991       -2.70088358       -2.11004979
 C           -2.92619566       -0.80761737       -2.55548187
 C           -1.86406279       -1.64700586       -3.07962557
 C           -3.41151972        1.26435195       -1.44119065
 C           -2.96472640        2.58642425       -1.03788159
 C           -1.97624788        3.22107324       -1.77644451
 C           -2.72911440        0.56819095       -2.44025651
 C           -0.03350163        3.00604142       -3.06628088
 C            1.01779828        2.03350252       -3.29175814
 C           -1.39920664        2.53309420       -2.91769491
 C           -1.67431236        1.18162839       -3.12594300
 C            1.44375204       -0.36619218       -3.41754423
 C            0.55684118       -1.51714792       -3.41171183
 C           -0.78653870       -1.04818645       -3.70749593
 C            0.66608325        0.79525883       -3.80358693
 C           -0.73653043        0.40119777       -3.80436769
