   70
C70 / DATE: 7/ 1/2024 / Origin: Program Fullerene / C70 from database
 C            1.35033705        0.02860384        4.76001887
 C            2.54332948       -0.09614493        3.95048867
 C            2.50478419       -1.39521183        3.29986942
 C            0.49875708       -1.11612443        4.47525896
 C            1.19646530       -1.97284256        3.52843005
 C           -0.81658572       -0.61535467        4.11152155
 C            0.54351390        1.22259929        4.62287572
 C           -0.82701563        0.80608405        4.36800768
 C            0.89206069        2.20808732        3.61210377
 C            2.81529900        0.89732229        2.92497329
 C            2.00814912        2.02960726        2.79256882
 C            2.94307726       -1.21874941        1.92952246
 C            3.24077778        0.18626358        1.72714070
 C            2.27654256       -1.88963414        0.91923923
 C            0.48927685       -2.46405897        2.43536695
 C            1.15556807       -2.66973163        1.22384612
 C           -1.39919348       -1.09654266        2.94497631
 C           -0.88734696       -2.27191013        2.40645200
 C           -2.14657470       -0.24538436        2.11656673
 C           -1.37136496        1.67986335        3.35216212
 C           -0.35529088        2.66682181        3.02192161
 C           -2.12972189        1.14232276        2.31865369
 C           -0.34599232        3.20854236        1.73941073
 C            2.06536796        2.73487063        1.59660952
 C            0.87912346        3.43093779        1.11768080
 C            2.99379357        0.76075790        0.48031786
 C            2.70383206        2.11615886        0.44544935
 C            2.43537550       -1.42474544       -0.37678728
 C            2.60124320       -0.05266578       -0.59338678
 C            2.01192036       -2.24438914       -1.40482815
 C            0.46136140       -3.29183848        0.17967206
 C            0.98710051       -3.23080183       -1.11359187
 C           -1.61476966       -2.90678406        1.41690301
 C           -0.88775937       -3.59313955        0.36606284
 C           -2.69170397       -0.77293502        0.93883774
 C           -2.67404936       -2.15551117        0.77436643
 C           -2.86964206        0.05361230       -0.17741082
 C           -2.41599039        1.98490793        1.25283389
 C           -1.49211620        3.07044264        0.95936941
 C           -2.86777156        1.42708934       -0.00630281
 C           -1.42075153        3.21588122       -0.48636203
 C           -2.36310237        2.27038001       -1.07286465
 C            0.96302771        3.48357308       -0.33328037
 C            2.10901631        2.68355537       -0.74068199
 C           -0.19350596        3.43755081       -1.10922399
 C            2.17657221        0.52663580       -1.80404674
 C            1.99621517        1.91750554       -1.88896131
 C            1.74109889       -1.67595376       -2.70596192
 C            1.81952298       -0.29809658       -2.88618290
 C            0.11397130       -3.31956351       -2.27733563
 C            0.63515915       -2.42014099       -3.29408485
 C           -1.78244211       -3.67318075       -0.77455662
 C           -2.86354398       -2.72427700       -0.54470629
 C           -1.25938544       -3.43027327       -2.10441232
 C           -2.76960477       -0.46380702       -1.47245718
 C           -2.90606410       -1.83305495       -1.68213587
 C           -2.14115898       -2.46424235       -2.74150335
 C           -2.06969308        1.70922543       -2.30967204
 C           -2.33153412        0.34834033       -2.52631904
 C           -0.05904872        3.09133870       -2.45229106
 C            1.16914349        2.43736337       -2.87266447
 C           -1.14000305        2.37615698       -3.10396407
 C            1.23348004        0.24784174       -4.02809357
 C            0.87069465        1.64525402       -4.04099446
 C           -0.56568794        1.72291835       -4.26378256
 C           -0.24855726       -1.76033008       -4.13832504
 C           -1.65268962       -1.66313803       -3.76178581
 C           -1.98251961       -0.24983600       -3.74029753
 C            0.14260602       -0.46628898       -4.66897664
 C           -1.02538249        0.39826741       -4.61124635
