   70
C70 / DATE: 7/ 1/2024 / Origin: Program Fullerene / C70 from database
 C            1.53374498       -0.06583896        5.08020876
 C            0.74732684       -1.27969772        4.96324293
 C            1.64442344       -2.30956386        4.48943975
 C            2.72221061       -0.23993060        4.26112018
 C            2.82792231       -1.64554184        3.95193459
 C            2.64281518        0.70701440        3.16479125
 C            0.75967470        1.00994555        4.49477390
 C            1.56900153        1.63408041        3.46542020
 C           -0.44428975       -0.96632499        4.18349805
 C           -0.52858394        0.47842874        4.08998934
 C           -0.77566006       -1.73407895        3.06401684
 C            1.16043061       -3.21496352        3.47165611
 C           -0.11548287       -2.94028412        2.82935423
 C            2.95243805       -2.04269269        2.56323911
 C            2.15738507       -3.23880431        2.41644077
 C            2.78663095        0.27692769        1.84557789
 C            2.89129693       -1.08849402        1.54459190
 C            2.38815510        1.15069568        0.83446332
 C            0.89397263        2.20229629        2.39468131
 C            1.50833608        2.19650715        1.14459649
 C           -1.10197175        1.03272907        2.95658695
 C           -0.49534394        2.16574664        2.42392580
 C           -1.51332182       -1.14857235        2.02633225
 C           -1.82523802        0.21193098        2.08977944
 C           -1.67961835       -1.83628715        0.81901154
 C            0.02714468       -3.39890121        1.46502493
 C            1.44626000       -3.41617906        1.17191211
 C           -0.79697677       -2.86854514        0.48598199
 C            2.58718904       -1.51506175        0.24603434
 C            1.85374563       -2.69804985        0.05785831
 C            2.56327001        0.77111122       -0.49387362
 C            2.65011820       -0.58959253       -0.80026119
 C            2.28671591        1.70336049       -1.48978176
 C            0.88990118        2.90639523        0.11226310
 C            1.39185884        2.80203737       -1.17934150
 C           -1.17574372        2.83970528        1.42831009
 C           -0.41600392        3.35330724        0.30113836
 C           -2.48353857        0.82020505        1.01891961
 C           -2.35059354        2.20078266        0.87536109
 C           -2.44715994       -1.26573250       -0.20253336
 C           -2.88879199        0.05589491       -0.07910651
 C           -2.42184197       -1.87266715       -1.46081951
 C           -0.34399674       -2.94215546       -0.82741644
 C            1.02729623       -2.78293590       -1.05719086
 C           -1.25999727       -2.65774928       -1.82707260
 C            2.34917382       -1.03402680       -2.08770212
 C            1.47039710       -2.17694812       -2.22327846
 C            2.00957632        1.26821504       -2.84717074
 C            2.01261954       -0.08668984       -3.13601822
 C            0.50888331        3.00091670       -2.32138472
 C            0.96475838        2.12289451       -3.38975921
 C           -1.33022520        3.42708505       -0.82890489
 C           -2.58787646        2.81681159       -0.41237200
 C           -0.85591488        3.21261027       -2.12094032
 C           -3.50917073        0.69135792       -1.16205942
 C           -3.33786887        2.12489501       -1.34444699
 C           -2.84564547       -1.14158723       -2.63979933
 C           -3.48566955        0.07663548       -2.47942925
 C           -0.80277036       -2.20205988       -3.12703787
 C            0.54198521       -1.91286311       -3.30653724
 C            0.93896980       -0.66211948       -3.93386215
 C           -1.81389226       -1.30434189       -3.66014773
 C            0.04327693        1.60280688       -4.29009083
 C           -0.02632683        0.16474266       -4.49884817
 C           -1.42734977       -0.22483903       -4.44867526
 C           -1.76425395        2.87966473       -3.12558127
 C           -3.07124675        2.36858462       -2.74852485
 C           -3.28857240        1.12577340       -3.46549481
 C           -1.31490345        2.11349748       -4.27432230
 C           -2.22306329        0.98852687       -4.44169131
