   70
C70 / DATE: 7/ 1/2024 / Origin: Program Fullerene / C70 from database
 C            1.02191367       -0.07712956        4.92146733
 C            2.36196394       -0.43103249        4.51321523
 C            2.26357706       -1.65309954        3.71639811
 C            0.19975757       -1.24521698        4.68610006
 C            0.86571060       -2.01746557        3.65374155
 C           -1.13008175       -0.75405628        4.41433793
 C            0.36124622        1.03058748        4.24675873
 C           -1.03572563        0.68913459        4.20740853
 C            0.96231522        1.60079260        3.12409803
 C            3.09149031        0.53229981        3.72243832
 C            2.35071115        1.60496566        3.07284201
 C            2.98019174       -1.42746875        2.47792571
 C            3.74083425       -0.21614285        2.66795856
 C            2.32649501       -1.59826202        1.25680876
 C            0.24871449       -2.15041267        2.41005551
 C            1.00698983       -2.06763743        1.23108771
 C           -1.82720885       -1.27987813        3.26334910
 C           -1.14656226       -2.07126132        2.33729448
 C           -1.79034227        0.99724669        3.01379029
 C           -2.59565990       -0.17437229        2.74590587
 C            0.22007051        1.82654115        1.94461108
 C           -1.16995008        1.62084132        1.93048950
 C            0.87324548        2.23334510        0.76419199
 C            3.00302213        1.83326307        1.81111999
 C            3.83534609        0.67007492        1.54121683
 C            2.27565539        2.34251179        0.74215722
 C            2.85300678       -0.97239719        0.11725527
 C            3.71562588        0.13072197        0.27641169
 C            2.23726325       -1.19602908       -1.12439300
 C            0.36490737       -2.24014920        0.00450019
 C            0.95825867       -1.75889033       -1.17025203
 C           -1.76745365       -2.25830051        1.10412964
 C           -0.98146511       -2.59960661        0.00403704
 C           -3.08727714       -0.31678542        1.46961462
 C           -2.96195849       -1.56847062        0.88384992
 C           -1.85253805        1.58035315        0.71058350
 C           -2.99992398        0.78062102        0.62824961
 C            0.14779495        2.32197654       -0.44201670
 C           -1.22037902        2.00427578       -0.46120172
 C            0.81229672        2.63295485       -1.64099026
 C            2.92550240        2.26624555       -0.48289953
 C            3.73455819        1.08104177       -0.72337024
 C            2.19625511        2.54250596       -1.69146546
 C            2.73370919       -0.55238240       -2.25746048
 C            3.50647094        0.65187682       -2.07425535
 C            2.79567037        1.72700008       -2.73199288
 C            1.85425512       -0.30797697       -3.38544559
 C            1.91041034        1.12032162       -3.69511655
 C            0.24959174       -1.79167649       -2.38134026
 C            0.62610860       -0.95778521       -3.43998758
 C           -1.61058128       -2.87412923       -1.20398142
 C           -0.98025051       -2.44296246       -2.43794864
 C           -3.65328971       -1.77961800       -0.29942980
 C           -3.03322946       -2.60676795       -1.31574830
 C           -3.70178731        0.70014531       -0.56383101
 C           -4.20771188       -0.60807104       -0.95886416
 C           -1.93726022        2.00134901       -1.66764501
 C           -3.16251330        1.33901413       -1.74270851
 C            0.13078593        2.55203144       -2.85321875
 C            0.71678734        1.77334861       -3.94334976
 C           -1.29397326        2.31514270       -2.85754700
 C           -0.35548965       -0.42923034       -4.27990117
 C           -0.34546550        0.99649938       -4.53745191
 C           -1.59635787        1.52912805       -4.04232355
 C           -2.01946048       -1.92999739       -3.32003919
 C           -3.28185178       -1.99315968       -2.60841457
 C           -4.01249164       -0.75978809       -2.38682030
 C           -3.44577263        0.47750373       -2.88627331
 C           -1.74088175       -0.81367722       -4.09788295
 C           -2.51361515        0.41562564       -3.90983298
