   70
C70 / DATE: 7/ 1/2024 / Origin: Program Fullerene / C70 from database
 C            1.56929416        0.05007582        4.61930818
 C            0.76537178       -1.15128941        4.50111215
 C            1.24492110       -1.90944928        3.35908174
 C            2.58317518        0.00319298        3.58351310
 C            2.42757780       -1.23375351        2.84954762
 C            2.50427453        1.23666813        2.83439105
 C            0.70420999        1.18284280        4.33379201
 C            1.27098301        1.89953905        3.21564615
 C           -0.62139447       -0.74283856        4.50806228
 C           -0.64618375        0.68608578        4.21089618
 C           -1.53137448       -1.55628300        3.85464940
 C            0.31240545       -2.42324545        2.45392728
 C           -1.03434910       -2.46373654        2.82267374
 C            0.66397205       -2.53161282        1.10241623
 C            2.62316516       -1.20573351        1.47784304
 C            1.94228547       -2.13443284        0.70663400
 C            2.80665485        1.20317560        1.48086948
 C            3.07000161       -0.02800971        0.86806077
 C            2.30862964        2.23194545        0.69208592
 C            0.44024239        2.34587662        2.19372991
 C            1.05834454        2.76913995        1.01876423
 C           -1.45398641        1.14717908        3.17026004
 C           -0.90582502        1.93893120        2.14637305
 C           -2.72572623       -0.92913250        3.32977134
 C           -2.64350039        0.46631051        2.93739151
 C           -2.05307772       -2.56086216        1.79263787
 C           -3.14521159       -1.68985868        2.16995142
 C           -0.32469972       -2.75044427        0.13338038
 C           -1.66966730       -2.57550827        0.46023618
 C            0.03227502       -2.89824071       -1.20993825
 C            2.33056757       -2.28487457       -0.61265072
 C            1.36572403       -2.75386257       -1.58645812
 C            3.33708484       -0.04483385       -0.50637006
 C            3.11075554       -1.22257038       -1.22517212
 C            2.80909522        2.34445141       -0.59743412
 C            3.43248917        1.17191408       -1.18373741
 C            2.02705759        3.00242213       -1.62876895
 C            0.27665681        3.36892641        0.04281932
 C            0.73649024        3.41125648       -1.33459568
 C           -1.67674623        2.24643657        1.01209798
 C           -1.14637573        3.09083844        0.03539055
 C           -3.30351660        0.59274905        1.65518585
 C           -3.62667452       -0.74768500        1.18217225
 C           -2.84413324        1.52552895        0.73387442
 C           -2.54828063       -2.07315104       -0.50159850
 C           -3.41879852       -1.02974713       -0.16276327
 C           -0.96266057       -2.85689269       -2.18555122
 C           -2.26861252       -2.32302263       -1.83999790
 C           -0.63765111       -2.38596377       -3.52071812
 C            1.70405550       -2.15029767       -2.86852877
 C            2.75887476       -1.17553049       -2.63864682
 C            0.69376066       -1.86932251       -3.77859294
 C            3.20967315        1.22670082       -2.61732461
 C            2.27331408        2.30853233       -2.87990771
 C            2.72588908        0.04382848       -3.30194301
 C            0.54827791       -0.51585893       -4.29628685
 C            1.14652200        1.74954343       -3.60508959
 C            1.53786832        0.42431741       -4.05186557
 C           -0.36131065        2.96353568       -2.17685062
 C           -1.55608591        2.94154730       -1.35245349
 C           -0.14558214        1.96202609       -3.12575560
 C           -3.25768871        1.36522769       -0.58809474
 C           -3.57921379        0.02656307       -1.05178393
 C           -2.57019797        2.05632000       -1.66295218
 C           -2.61911233       -1.32748655       -2.84144928
 C           -1.59133730       -1.34485811       -3.86445045
 C           -0.83973776       -0.12922514       -4.11863707
 C           -1.14877002        1.02620920       -3.40014147
 C           -3.11175816       -0.10322415       -2.41866064
 C           -2.38269965        1.11300040       -2.75337682
