   70
C70 / DATE: 7/ 1/2024 / Origin: Program Fullerene / C70 from database
 C            1.43158865        0.05023179        5.18246313
 C            0.61056808       -1.14108913        5.10880709
 C            1.36426314       -2.15449444        4.39402855
 C            2.60463918       -0.17080886        4.35077848
 C            2.55721833       -1.52463504        3.85062482
 C            2.65646969        0.90182427        3.38563623
 C            0.67331026        1.14466878        4.59616292
 C            1.51748855        1.77574893        3.61730946
 C           -0.68845546       -0.75075577        4.58952670
 C           -0.59847905        0.63206220        4.14389752
 C           -1.38097185       -1.64654063        3.79403245
 C            0.70735310       -2.86256102        3.31161821
 C           -0.67266961       -2.77703527        3.19429213
 C            2.55524957       -1.73131390        2.41103692
 C            1.51449467       -2.69804189        2.11316685
 C            2.98947592        0.63007268        2.05980532
 C            2.73579417       -0.65116637        1.54192695
 C            2.88144593        1.71406250        1.20038509
 C            0.93568733        2.34293180        2.49352858
 C            1.83119390        2.67502740        1.49255039
 C           -1.04448400        0.97071602        2.86112163
 C           -0.35656431        1.93745617        2.10833897
 C           -2.24997605       -1.11361514        2.76545498
 C           -1.99025951        0.15257359        2.23794626
 C           -1.26770725       -2.99792191        1.88914534
 C           -2.48497932       -2.21115757        1.85534561
 C            0.88457510       -2.63064691        0.87515032
 C           -0.45452881       -3.00839861        0.75573780
 C            2.30066677       -0.78861795        0.21455206
 C            1.45580591       -1.85085164       -0.12807214
 C            2.86121903        1.49467422       -0.22918743
 C            2.53207896        0.23790669       -0.70719507
 C            1.32120272        3.15905346        0.23897974
 C            2.19263302        2.64441543       -0.80161249
 C           -0.81431860        2.25791885        0.81803829
 C           -0.04708034        3.12022745        0.02142730
 C           -2.41221527        0.43624227        0.93738237
 C           -1.80728705        1.46777765        0.21874116
 C           -3.01931351       -1.91834463        0.61909005
 C           -3.16181340       -0.52080745        0.25180453
 C           -1.06856617       -2.88625730       -0.49008688
 C           -2.42393384       -2.55591344       -0.53396262
 C            0.92911748       -1.92663747       -1.41378616
 C           -0.28223235       -2.59995190       -1.60523210
 C            2.00527579        0.14268251       -1.99661450
 C            1.40519625       -1.05239234       -2.39074866
 C            1.65523453        2.53433701       -2.07203403
 C            1.79066851        1.31466261       -2.74057873
 C           -0.46629718        3.41431116       -1.27045334
 C            0.52625818        3.30728744       -2.32539154
 C           -2.13879907        1.65769267       -1.12828419
 C           -1.66276345        2.78399621       -1.78150774
 C           -3.22049298       -0.48306108       -1.20164414
 C           -2.93014303       -1.82782668       -1.67911129
 C           -2.67019421        0.60036155       -1.87427247
 C           -0.91791938       -2.52115333       -2.84132565
 C           -2.26073978       -1.96675939       -2.88090494
 C            1.01285504       -1.22571971       -3.71294848
 C           -0.19343857       -1.97937494       -3.97556289
 C            1.33767820        1.22312043       -4.05611601
 C            1.00143846       -0.07844602       -4.60026540
 C           -0.18459737        3.13618052       -3.57318878
 C           -1.55352024        2.77329274       -3.23159443
 C            0.31542975        2.15154627       -4.51118075
 C           -2.34372456        0.45728233       -3.22927185
 C           -2.19974934       -0.82341824       -3.76680189
 C           -1.10593119       -1.09552833       -4.68097679
 C           -0.33029128        0.01723202       -5.18629447
 C           -1.86869165        1.55282881       -3.94590448
 C           -0.82044512        1.35883786       -4.93772184
