   70
C70 / DATE: 7/ 1/2024 / Origin: Program Fullerene / C70 from database
 C            1.17069941        0.09937892        4.24677361
 C            2.44126869       -0.26031764        3.66259219
 C            2.43508601       -1.69993678        3.47410389
 C            0.35765799       -1.10771380        4.30794681
 C            1.05613626       -2.13928017        3.57718712
 C           -0.97366658       -0.74976037        3.88341806
 C            0.36944379        1.11697295        3.59650679
 C           -1.00788109        0.69273553        3.71682621
 C            0.78080754        1.67119063        2.38741969
 C            2.81292040        0.33338397        2.39549270
 C            1.95355936        1.22536432        1.76228916
 C            3.14865173       -1.98365445        2.24769219
 C            3.43649027       -0.70647533        1.59959238
 C            2.68880865       -3.02974237        1.46540469
 C            0.45209387       -2.72634131        2.46308671
 C            1.27412173       -3.38565023        1.54331060
 C           -1.61962667       -1.52605287        2.93195287
 C           -0.84973524       -2.34479877        2.08275014
 C           -2.84099993       -1.03155109        2.48882291
 C           -1.93890932        1.21858563        2.83110004
 C           -3.02280434        0.41189613        2.48014088
 C           -0.17064136        2.35039499        1.62464604
 C           -1.53275591        2.21980697        1.94724721
 C            0.21830171        2.91297226        0.40466752
 C            2.12004558        1.44886614        0.39963566
 C            1.38822118        2.46255769       -0.20950894
 C            3.37484046       -0.61653763        0.20805236
 C            2.81470995        0.51815302       -0.38459238
 C            3.06813797       -3.04038934        0.06912367
 C            3.45741757       -1.78367481       -0.54323189
 C            0.80076412       -3.59005893        0.18736920
 C            1.94641125       -3.56200247       -0.69022552
 C           -1.29096720       -2.62439499        0.77689147
 C           -0.36530799       -2.95441251       -0.20376387
 C           -3.42627273       -1.55834929        1.27900258
 C           -2.56711479       -2.27054252        0.36694884
 C           -3.84182033        0.75588488        1.32688468
 C           -4.03622652       -0.45632913        0.55239780
 C           -2.49785353        2.78026873        1.11832282
 C           -3.58004613        1.93554398        0.64729031
 C           -0.68016058        3.69267463       -0.31597472
 C           -2.08911118        3.60831811        0.00332749
 C           -0.59477987        3.70949587       -1.76212840
 C            1.65168552        2.77930485       -1.54022756
 C            0.61327830        3.38883196       -2.35940087
 C            2.73563844        0.59496283       -1.77906791
 C            2.35998762        1.80820338       -2.35747821
 C            2.91128861       -1.79224801       -1.88481695
 C            1.85268125       -2.79050876       -1.90780621
 C            2.66245498       -0.58802752       -2.52911795
 C           -0.48697840       -2.39521632       -1.48678339
 C            0.60185247       -2.39864345       -2.37464205
 C           -2.72315501       -1.68238123       -0.95032851
 C           -3.55043147       -0.49700633       -0.81779657
 C           -1.62054452       -1.63067042       -1.78915594
 C           -3.46374410        1.89547799       -0.80074197
 C           -2.76950152        3.10460446       -1.18264280
 C           -1.78883949        3.03153473       -2.23899921
 C           -3.14567292        0.68989324       -1.42837824
 C           -1.51658045       -0.57740405       -2.68979576
 C           -1.63632793        1.84663009       -2.95016554
 C           -2.13566090        0.64969703       -2.40309072
 C            0.56780108        2.65406365       -3.61060725
 C            1.75164673        1.81921883       -3.67674739
 C           -0.58774762        1.80833619       -3.86448959
 C            1.77156780       -0.65483079       -3.59577573
 C            0.60399406       -1.50487205       -3.44398877
 C           -0.55671309       -0.66900856       -3.68316678
 C            1.35605058        0.55872256       -4.26139759
 C           -0.09794419        0.53485712       -4.34018207
