   70
C70 / DATE: 7/ 1/2024 / Origin: Program Fullerene / C70 from database
 C            1.30408891        0.02544661        5.10159194
 C            0.49709407       -1.17844672        5.01313200
 C            1.39974014       -2.27042727        4.72470679
 C            2.57495604       -0.25710017        4.45553576
 C            2.67276967       -1.68948029        4.31066413
 C            2.65869739        0.56842181        3.26453288
 C            0.63976033        1.05410985        4.32414401
 C            1.56666643        1.52336392        3.31784707
 C           -0.60218341       -0.90748791        4.09753555
 C           -0.62478828        0.52562534        3.85847832
 C           -0.86650169       -1.76813177        3.02695747
 C            1.00994418       -3.23302737        3.71554649
 C           -0.15193453       -2.96181200        2.88513466
 C            2.98968397       -2.23070353        3.00604979
 C            2.13825279       -3.39002495        2.81778842
 C            2.97949759        0.00107738        2.02809309
 C            3.20206063       -1.38369871        1.91557859
 C            2.70674960        0.75422621        0.87688076
 C            1.03528943        1.95207380        2.11177246
 C            1.82374264        1.84025799        0.97600334
 C           -1.08842167        0.96782199        2.62786864
 C           -0.34867997        1.92730617        1.93892283
 C           -1.55883321       -1.26552545        1.92077611
 C           -1.85956931        0.09707709        1.87384363
 C           -1.55034027       -1.98989571        0.72600470
 C            0.16972597       -3.43155790        1.54726240
 C            1.60977408       -3.63619281        1.48884381
 C           -0.47500897       -2.83701397        0.46763835
 C            3.18373230       -1.96975829        0.65221422
 C            2.29934677       -3.10258879        0.41293853
 C            3.04439073        0.24239679       -0.38025320
 C            3.14631641       -1.13214018       -0.52838290
 C            2.73634326        0.97864244       -1.51826184
 C            1.37242311        2.47610315       -0.17534812
 C            2.04116066        2.23660199       -1.36621030
 C           -0.85136148        2.37643235        0.71956302
 C            0.04305768        2.90652665       -0.20765418
 C           -2.46701169        0.59929919        0.73030232
 C           -2.05916224        1.84785686        0.25687989
 C           -2.28204746       -1.50392056       -0.35551547
 C           -2.98299550       -0.31253405       -0.17730786
 C           -1.82769748       -1.82454735       -1.63483043
 C            0.18268235       -2.72638952       -0.76065291
 C            1.56561778       -2.81715343       -0.80470213
 C            2.29558285       -1.78862440       -1.51045863
 C           -0.46937272       -2.05827239       -1.79119679
 C            2.10740457        0.28645633       -2.63383356
 C            1.61525833       -0.99246095       -2.42439778
 C            0.25759516       -1.23135574       -2.66108841
 C            1.37481120        2.51120183       -2.62441548
 C            1.29438563        1.24895325       -3.34759034
 C           -0.47114179        3.48009264       -1.36583305
 C            0.26163086        3.33497884       -2.61523972
 C           -2.59671639        2.32557257       -0.94244969
 C           -1.88201843        3.28924135       -1.66089088
 C           -3.74321396        0.17744113       -1.22940978
 C           -3.60816085        1.58518335       -1.56333974
 C           -2.53994374       -1.36671234       -2.73204263
 C           -3.71225523       -0.55956270       -2.47484259
 C           -0.44582698       -0.40885874       -3.55304066
 C            0.07097752        0.85688704       -3.88557911
 C           -1.79095359       -0.70807073       -3.78679619
 C           -0.71497783        3.16095173       -3.67443813
 C           -2.02717649        3.39681088       -3.10327684
 C           -0.77180512        1.87374150       -4.34095910
 C           -3.85484521        1.71892355       -2.99211428
 C           -3.85506330        0.38517748       -3.56617610
 C           -2.66919717        0.27228766       -4.39881718
 C           -2.95370866        2.52059318       -3.78939264
 C           -2.16829642        1.60831481       -4.61429333
