   70
C70 / DATE: 7/ 1/2024 / Origin: Program Fullerene / C70 from database
 C            1.16844538       -0.05656449        4.46116994
 C            2.40418491       -0.39258796        3.79375749
 C            2.36103701       -1.80885397        3.46559796
 C            0.32739823       -1.24390793        4.47912987
 C            1.03932311       -2.30607364        3.79529465
 C           -0.99367613       -0.85950512        4.00877234
 C            0.37528732        1.03111263        3.92997296
 C           -1.00649011        0.58795157        3.86854928
 C            0.86392263        1.81214467        2.88787303
 C            2.75993426        0.32998004        2.58542372
 C            1.94479693        1.35649240        2.11765381
 C            2.85072085       -1.95815813        2.10775668
 C            3.25893420       -0.64259017        1.63604711
 C            2.19914108       -2.81454050        1.22247678
 C            0.36072271       -3.07717726        2.86296279
 C            1.00811872       -3.43285629        1.60673686
 C           -1.64331582       -1.63577424        3.05460006
 C           -1.04065618       -2.79907835        2.57602581
 C           -2.68309658       -1.06142089        2.33243444
 C           -1.85383983        1.17807708        2.93178163
 C           -2.81218429        0.38855894        2.30019296
 C           -0.03246442        2.70608790        2.32012323
 C           -1.44888074        2.37019018        2.33321129
 C            0.27136978        3.30968605        1.04004686
 C            2.04483002        1.72606896        0.77305224
 C            1.37663487        2.86879699        0.32757166
 C            3.16519244       -0.37061556        0.27666937
 C            2.64684319        0.85453602       -0.14886394
 C            2.48383800       -2.68187200       -0.13237792
 C            3.10705638       -1.45141434       -0.59059045
 C            1.49050964       -3.06510697       -1.12464526
 C           -0.04198476       -3.65406145        0.62293938
 C           -1.30659933       -3.24401597        1.21632516
 C            0.19978098       -3.38369085       -0.71958201
 C           -3.01973041       -1.57244475        1.01251108
 C           -2.23951952       -2.56910881        0.43547841
 C           -3.31851484        0.76247992        0.98758567
 C           -3.47840598       -0.45304836        0.20393205
 C           -2.01316140        2.77764368        1.05510289
 C           -0.98242274        3.50772731        0.33211628
 C           -2.86152890        1.91961734        0.36545762
 C           -0.96650680        3.49256667       -1.05850093
 C            1.47224689        3.24491271       -1.00662424
 C            0.26096735        3.66970493       -1.69379845
 C            2.55833821        1.12041339       -1.51854183
 C            2.21702109        2.40752001       -1.92329619
 C            2.70563161       -1.23572447       -1.96448281
 C            1.69912486       -2.23255156       -2.29994164
 C            2.53669329        0.05834705       -2.43543026
 C            0.61793417       -1.85788975       -3.09623778
 C           -0.87430751       -3.06868264       -1.54538635
 C           -2.12739210       -2.63034561       -0.94970069
 C           -0.66064477       -2.29874466       -2.76221852
 C           -3.20595965       -0.42610690       -1.15991136
 C           -2.66099649       -1.55215198       -1.76825035
 C           -1.79587058       -1.40217300       -2.92831890
 C           -2.94073500        2.01344405       -1.01975531
 C           -2.01748931        2.87766886       -1.74102371
 C           -3.13062826        0.80337617       -1.80662831
 C           -1.59352962       -0.14460693       -3.48524351
 C           -1.80127489        2.28478883       -3.05459285
 C           -2.34894541        0.93466782       -3.02695194
 C            0.40689499        3.33130357       -3.09737533
 C            1.67531695        2.63643406       -3.25103645
 C           -0.62148730        2.53587389       -3.73969800
 C            1.84436393        0.18978451       -3.63465908
 C            0.75129111       -0.72832505       -3.90251746
 C           -0.41992372        0.08196983       -4.19684862
 C            1.45353455        1.49873140       -4.11235051
 C            0.03478176        1.44311111       -4.43095240
