   70
C70 / DATE: 7/ 1/2024 / Origin: Program Fullerene / C70 from database
 C            1.40117836       -0.16167247        4.19645247
 C            2.42675178       -0.33332867        3.18441090
 C            2.25529499       -1.65360346        2.59500468
 C            0.54011461       -1.33255438        4.15861538
 C            1.00344397       -2.19446329        3.08318461
 C           -0.83823429       -0.87837944        4.14958593
 C            0.56032641        1.01721816        4.15158055
 C           -0.82656449        0.57670500        4.18144618
 C            0.93278403        2.07673739        3.33361870
 C            2.77657811        0.73320185        2.35782860
 C            2.08643262        1.94470432        2.45314184
 C            3.47709149        0.44930272        1.18932304
 C            2.60166313       -1.83636569        1.26222629
 C            3.47883025       -0.91683024        0.69345350
 C            1.77690819       -2.60369204        0.43288569
 C            0.08631807       -2.69557881        2.16852040
 C            0.51083210       -3.01137911        0.87659723
 C           -1.75264111       -1.54463383        3.34312201
 C           -1.27885918       -2.57923294        2.43715117
 C           -2.79031945       -0.79784271        2.64720576
 C           -1.79442645        1.29225412        3.48541150
 C           -2.81853647        0.58555614        2.72937745
 C           -0.08323779        2.84021534        2.62627302
 C           -1.41762536        2.47854127        2.73106950
 C            1.81363063        2.71540273        1.24708514
 C            0.45085567        3.20748219        1.32516665
 C            3.32908771        1.32231114        0.03767484
 C            2.30510018        2.26539985        0.02851502
 C            3.65097042       -0.86781087       -0.74834786
 C            3.60063046        0.53025133       -1.15114889
 C            2.13881863       -2.78459270       -0.90259295
 C            3.04317766       -1.83757896       -1.53239144
 C            1.13650135       -3.15807850       -1.88531057
 C           -0.41939824       -3.51631750       -0.03137108
 C           -0.14019901       -3.48470156       -1.45598712
 C           -2.23698608       -2.66505615        1.34902051
 C           -3.00802204       -1.43351777        1.35757666
 C           -1.82188064       -3.18300620        0.13672469
 C           -3.07926706       -0.65248654        0.20194274
 C           -3.10487204        1.35920015        1.53500179
 C           -2.26104640        2.54175600        1.55246872
 C           -3.32479927        0.72132242        0.31455416
 C           -0.35855731        3.13562087        0.19569096
 C           -1.74665387        2.99396439        0.34206763
 C            1.55530705        2.46237875       -1.13422515
 C            0.24380895        2.94554510       -1.05353193
 C            2.99568468        0.88484476       -2.34774691
 C            2.04170388        1.97834054       -2.34871715
 C            2.48606133       -1.47781352       -2.82711494
 C            1.31552263       -2.31069223       -3.05453586
 C            2.48380291       -0.14792112       -3.23586742
 C            0.20567465       -1.78613665       -3.70823361
 C           -1.30169975       -2.90634810       -2.11749394
 C           -2.24586346       -2.52423155       -1.08325636
 C           -2.71345990       -1.21119547       -1.03154328
 C           -1.13179562       -2.06864241       -3.20917493
 C           -2.65098755       -0.41686509       -2.17944737
 C           -1.90126945       -0.83840314       -3.27969663
 C           -3.29576728        1.51644109       -0.82634938
 C           -2.52556071        2.75108332       -0.78323736
 C           -3.07022420        0.90543680       -2.11950357
 C           -0.52347879        3.05159574       -2.21099525
 C           -1.96145729        2.97323465       -2.09585068
 C           -2.41522653        1.89551822       -2.95868372
 C            1.13207729        1.76257044       -3.46021715
 C            1.32659285        0.39813562       -3.92909337
 C            0.22419195       -0.41067620       -4.18380313
 C           -1.11742114        0.12944046       -4.03317203
 C           -0.14617331        2.29602813       -3.39234564
 C           -1.29123745        1.48388829       -3.77998924
