   70
C70 / DATE: 7/ 1/2024 / Origin: Program Fullerene / C70 from database
 C            1.62876161        0.00456632        4.50809760
 C            0.79283406       -1.17570966        4.42042891
 C            1.30032493       -2.01888397        3.34907611
 C            2.62799462       -0.08379402        3.45920317
 C            2.41019886       -1.31725624        2.73025472
 C            2.59649634        1.15995486        2.71234043
 C            0.78839344        1.15095007        4.21202771
 C            1.44725900        1.91296186        3.17819871
 C           -0.58528101       -0.72925724        4.33880797
 C           -0.55126595        0.67014515        3.94493674
 C           -1.48036305       -1.56181963        3.69711687
 C            0.37315270       -2.67490433        2.54166592
 C           -0.94752606       -2.71382836        2.98968626
 C            0.64112591       -2.83773238        1.17275226
 C            2.48128576       -1.27270731        1.34853125
 C            1.74285411       -2.18449189        0.59719569
 C            2.82005430        1.11734379        1.33571657
 C            2.99056385       -0.12976282        0.73084334
 C            2.35435055        2.18643170        0.55690759
 C            0.67560240        2.52472031        2.20921279
 C            1.34865880        3.00051121        1.09938034
 C           -1.18241068        1.07183945        2.76342821
 C           -0.66252830        2.14442765        2.03860354
 C           -2.44569599       -0.96803153        2.79441834
 C           -2.12746423        0.23542661        2.16488077
 C           -1.99126333       -3.14844834        2.09066964
 C           -2.96196773       -2.06443472        2.00816389
 C           -0.29724664       -3.48345557        0.35334365
 C           -1.63139950       -3.51336990        0.73982384
 C           -0.04057509       -3.62130747       -1.00487200
 C            1.99152149       -2.28453949       -0.77239906
 C            1.19945156       -3.11484880       -1.55325555
 C            3.25758969       -0.18005993       -0.62665672
 C            2.78623982       -1.32104895       -1.39396613
 C            2.59561784        2.18011032       -0.82685800
 C            3.05674736        1.01292325       -1.42930419
 C            1.98703455        3.13079683       -1.64558252
 C            0.64585027        3.87190160        0.29004785
 C            1.13303669        4.12759610       -1.04169573
 C           -1.32704673        2.57434475        0.88799198
 C           -0.79011636        3.67604599        0.21938410
 C           -2.51517883        0.46242436        0.83250238
 C           -2.15431992        1.66734363        0.20249750
 C           -3.23551582       -1.83613660        0.61176318
 C           -2.61716348       -2.91531416       -0.14120208
 C           -3.16144595       -0.54982542        0.10026475
 C           -1.10321386       -3.29608200       -1.94735403
 C           -2.26590990       -2.69038049       -1.47033733
 C            0.95191133       -2.75960335       -2.94137567
 C           -0.48141974       -2.81421854       -3.16754104
 C            2.44133524       -0.84593673       -2.72666969
 C            2.46627649        0.60289860       -2.69279943
 C            1.43490149       -1.48282277       -3.43221252
 C            1.34734422        2.68562826       -2.87768017
 C            1.39266063        1.33221966       -3.19384826
 C           -0.02042350        4.32146296       -1.89946920
 C           -1.20268084        3.95941567       -1.13360637
 C            0.09294175        3.38921274       -3.00647874
 C           -2.47684325        1.87442801       -1.15310576
 C           -1.89459785        2.92399236       -1.85577898
 C           -1.11532864        2.60296690       -3.04506087
 C           -3.24861178       -0.44264779       -1.27616946
 C           -2.75559834       -1.54090665       -2.09689188
 C           -2.89285528        0.79636085       -1.91888747
 C           -0.89734063       -1.53782243       -3.71215398
 C            0.28572008       -0.70555825       -3.87251338
 C            0.22003007        0.65993967       -3.57973330
 C           -1.03801425        1.26888831       -3.42868376
 C           -2.06638042       -0.96289459       -3.24447210
 C           -2.14112889        0.47966252       -3.12154916
