   70
C70 / DATE: 7/ 1/2024 / Origin: Program Fullerene / C70 from database
 C            1.32036909       -0.07129750        4.22545649
 C            2.42314187       -0.27269087        3.30277286
 C            2.45127561       -1.69270569        3.01219653
 C            0.44271508       -1.22687062        4.10279602
 C            1.09519851       -2.17455123        3.22720580
 C           -0.86936117       -0.74149408        3.74235626
 C            0.50501826        1.12107670        4.09303135
 C           -0.88051326        0.68959128        3.98558592
 C            0.96298611        2.15590870        3.28758325
 C            2.62008678        0.63865486        2.26582168
 C            2.06924973        1.91392047        2.36877385
 C            3.07319981        0.17904339        1.02479135
 C            3.13019229       -2.12400007        1.88530954
 C            3.56015606       -1.12614768        0.91968851
 C            2.55687399       -3.22361379        1.13176689
 C            0.39361938       -2.71463700        2.15169467
 C            1.12061451       -3.43058926        1.20279365
 C           -1.49989368       -1.23515676        2.60376806
 C           -0.86252017       -2.19806735        1.80175980
 C           -2.60315970       -0.53621624        2.10645053
 C           -1.79064423        1.47163824        3.28776682
 C           -2.73387326        0.82221337        2.39202461
 C            0.00575828        3.01729791        2.61402151
 C           -1.34829757        2.70027951        2.64480977
 C            1.81750112        2.67642029        1.16066902
 C            0.61481367        3.46308954        1.37216627
 C            2.82301700        0.92396953       -0.13500711
 C            2.04097787        2.07691312       -0.07366413
 C            3.16873874        0.40707084       -1.37759355
 C            3.61804871       -1.77659633       -0.37939667
 C            2.91587972       -3.04115504       -0.26261187
 C            3.41009750       -1.01727051       -1.51798092
 C            0.62334503       -3.53024532       -0.15825991
 C            1.72276661       -3.25126512       -1.06461066
 C           -1.44057817       -2.57413963        0.58669625
 C           -0.62599032       -3.01385598       -0.45673823
 C           -3.28626786       -1.03618000        1.00547347
 C           -2.74409111       -2.18442488        0.30982753
 C           -3.75038821       -0.09819132       -0.00480662
 C           -3.02683848        1.74147990        1.30400191
 C           -2.16608750        2.90105029        1.45752555
 C           -3.28836147        1.21303816        0.04095686
 C           -0.18603857        3.76677772        0.28226838
 C           -1.61515161        3.48656073        0.32985241
 C            1.32479892        2.50552304       -1.19902256
 C            0.27749427        3.41416184       -1.04677370
 C            2.42742223        0.83680035       -2.55012393
 C            1.47737017        1.84782078       -2.42360274
 C            2.47560773       -1.50029378       -2.52090373
 C            1.49251074       -2.42257366       -2.15855548
 C            2.11414277       -0.35414940       -3.33279263
 C           -0.88400734       -2.59305229       -1.76194017
 C            0.17945945       -2.22701764       -2.59453072
 C           -3.17653191       -2.10010586       -1.07383573
 C           -3.80042011       -0.79889112       -1.26617467
 C           -2.18791186       -2.27027762       -2.12160866
 C           -3.18692312       -0.18533522       -2.42132021
 C           -2.41691779       -1.22018980       -3.09487984
 C           -2.69896046        1.79047162       -1.09647604
 C           -2.00935577        2.99891414       -0.98002792
 C           -0.90297567        3.27542894       -1.87677303
 C           -2.65918733        1.10025648       -2.31894732
 C            0.48488678        1.96920196       -3.39753861
 C           -0.80132295        2.54668081       -3.04567412
 C           -1.81315043        1.54591158       -3.33494923
 C            0.93013448       -0.39645962       -4.05133924
 C           -0.05307710       -1.40874317       -3.70197377
 C           -1.37517149       -0.84320010       -3.92694086
 C            0.22001236        0.84659581       -4.27939331
 C           -1.20551154        0.56788966       -4.22289550
