   70
C70 / DATE: 7/ 1/2024 / Origin: Program Fullerene / C70 from database
 C            1.13466654        0.05067936        4.46721726
 C            2.44259382       -0.22520230        3.92483625
 C            2.44031075       -1.60049099        3.45747083
 C            0.30744748       -1.12892425        4.25412984
 C            1.06223382       -2.05904270        3.44902724
 C           -0.97072233       -0.68223394        3.76026573
 C            0.40072635        1.19146525        3.95875235
 C           -0.97929266        0.77116025        3.78941328
 C            0.96687407        2.03086028        3.00180859
 C            2.92989995        0.60195998        2.84111643
 C            2.22138504        1.73354067        2.43822229
 C            3.18561394       -1.64960407        2.21443451
 C            3.47752309       -0.27876155        1.81985702
 C            2.76342600       -2.53905150        1.24424910
 C            0.52505393       -2.53520480        2.25253167
 C            1.41275571       -3.08100529        1.33279481
 C           -1.54271219       -1.31781512        2.66862545
 C           -0.73946737       -2.09808777        1.81848126
 C           -2.68422509       -0.72169567        2.16170642
 C           -1.79092871        1.44818538        2.87972488
 C           -2.79936080        0.72814128        2.23941438
 C            0.11163743        2.92971813        2.36931954
 C           -1.30976266        2.61842600        2.29015439
 C            0.50131253        3.57147838        1.12776765
 C            2.59261859        2.30516051        1.22335891
 C            1.72727038        3.26227427        0.56144739
 C            3.37742566        0.10491829        0.47957370
 C            3.18872589        1.45507527        0.20285008
 C            2.97242386       -2.19209692       -0.14234717
 C            3.07357130       -0.84815616       -0.50043391
 C            0.97255408       -3.35754626       -0.01820481
 C            2.09050851       -3.05745861       -0.89719107
 C           -1.17454423       -2.38353443        0.50735502
 C           -0.30749586       -2.99125119       -0.41326897
 C           -3.20509543       -1.14231792        0.88396718
 C           -2.46531611       -2.01950020        0.10134187
 C           -3.32070794        1.18854386        0.96332138
 C           -3.82319916        0.02116335        0.26578771
 C           -1.77838798        3.01370890        0.96860568
 C           -0.68178363        3.67870523        0.28768233
 C           -2.63163371        2.17089647        0.26083012
 C           -0.56674965        3.55440063       -1.08790571
 C            1.82951992        3.03666853       -0.87157453
 C            2.65280580        1.85764051       -1.08328080
 C            0.72332575        3.23940231       -1.68287605
 C            2.61306866       -0.44844970       -1.76197023
 C            2.24031194        0.88295650       -1.98456249
 C            1.81969362       -2.72361259       -2.20930890
 C            2.27054616       -1.42974769       -2.69092627
 C           -0.58807270       -2.94206691       -1.78147948
 C            0.46471751       -2.89355321       -2.69556432
 C           -2.84656686       -2.18422364       -1.22761628
 C           -1.86513030       -2.60006352       -2.20807729
 C           -3.93158963        0.05988368       -1.11232178
 C           -3.67843513       -1.16502639       -1.84668016
 C           -2.57780148        2.12454707       -1.13835661
 C           -1.58632757        2.82419221       -1.82151938
 C           -3.29045087        1.14844313       -1.83410211
 C            0.48825627        2.33474144       -2.79315899
 C            1.28706543        1.20932032       -2.96031877
 C           -0.94851027        2.20690936       -2.97333364
 C            1.42577746       -1.07936963       -3.81401770
 C            0.34070283       -2.04666544       -3.86606072
 C            0.84250935        0.24218131       -3.85156145
 C           -2.02969905       -1.76530292       -3.39425006
 C           -3.07579723       -0.80594039       -3.11641768
 C           -2.73053536        0.60292972       -3.06401323
 C           -1.46612711        1.01821068       -3.48441515
 C           -0.90043409       -1.32533112       -4.06632018
 C           -0.58999626        0.09984624       -4.07400662
