   70
C70 / DATE: 7/ 1/2024 / Origin: Program Fullerene / C70 from database
 C            1.26111776       -0.08236399        4.69832447
 C            2.65111898       -0.22966617        4.30809094
 C            2.73312128       -1.35614314        3.39301919
 C            0.52027516       -1.20502419        4.14102236
 C            1.39825363       -1.91512041        3.23896779
 C           -0.73165340       -0.69913916        3.61620282
 C            0.53910091        1.13323038        4.35707248
 C           -0.75451685        0.73390720        3.83639866
 C            1.19925962        2.20872155        3.77391940
 C            3.34060355        0.89358632        3.69901969
 C            2.62477296        2.13919791        3.49373068
 C            3.43538554       -0.91546701        2.20069662
 C            3.84868133        0.46129133        2.40751283
 C            2.90725939       -1.26162146        0.96452458
 C            0.94535922       -2.19708722        1.95449060
 C            1.87154832       -2.18948306        0.91691067
 C           -1.20795796       -1.17734142        2.39559002
 C           -0.40992132       -2.04327122        1.63858577
 C           -2.20025943       -0.43745770        1.75054582
 C           -1.39082317        1.51087671        2.88079470
 C           -2.39414186        0.89884052        2.13707883
 C            0.57503886        2.90003852        2.66195054
 C           -0.72591383        2.59422124        2.29343588
 C            2.82089860        2.54297943        2.10872057
 C            3.46515756        1.45222467        1.41305044
 C            1.55281659        3.02262962        1.59819949
 C            3.00139045       -0.34867887       -0.08119687
 C            2.91182400        1.00679276        0.21730207
 C            2.58401799       -0.77394111       -1.33340104
 C            1.45602198       -2.61180956       -0.33692149
 C            2.13010800       -2.08518115       -1.43410709
 C           -0.82526747       -2.41676510        0.35753473
 C            0.12249149       -2.98179935       -0.49587027
 C           -2.70337810       -0.90009373        0.52944561
 C           -1.99324026       -1.86787274       -0.18713200
 C           -3.71403964       -0.18789636       -0.11573166
 C           -3.16451879        1.73367989        1.34256452
 C           -4.02802377        1.14726184        0.34698714
 C           -1.12335231        2.96932396        1.01448526
 C           -2.47624456        2.85508078        0.73453190
 C            1.15634347        2.67457359        0.30703256
 C            1.92897614        1.76729692       -0.42756340
 C           -0.18904490        2.83935115       -0.02613156
 C            2.06044147        0.17562395       -2.20782565
 C            1.46499679        1.31460122       -1.66563839
 C            1.69150400       -0.23807156       -3.48147242
 C            1.84375913       -2.59150493       -2.69213797
 C            1.80625758       -1.65313971       -3.79763061
 C           -0.28350160       -3.45579788       -1.73683705
 C            0.69328205       -3.46640875       -2.81449079
 C           -2.27165380       -2.04333642       -1.54910329
 C           -1.53817992       -2.97132304       -2.28261886
 C           -3.73611143       -0.15919578       -1.56758053
 C           -2.87203726       -0.99925333       -2.24963774
 C           -4.02718096        2.03820859       -0.79990240
 C           -2.91610639        2.95887338       -0.63531044
 C           -3.75303946        1.23482610       -1.97117700
 C           -0.61185028        2.50750860       -1.31819349
 C            0.20357386        1.71121868       -2.12775848
 C           -1.94706606        2.69092645       -1.67668592
 C           -2.55868387        1.75906539       -2.60769874
 C            0.42933191        0.23413539       -4.02064508
 C           -2.19263413       -0.46748992       -3.34427817
 C           -0.36296352        1.06634057       -3.23521993
 C           -1.73880563        0.84701255       -3.25070568
 C            0.69902045       -2.01673011       -4.66095859
 C            0.00863918       -3.14149429       -4.05110327
 C           -1.32905808       -2.70519794       -3.69867082
 C           -0.21554994       -0.89107162       -4.68231445
 C           -1.49502925       -1.34020774       -4.16408843
