   70
C70 / DATE: 7/ 1/2024 / Origin: Program Fullerene / C70 from database
 C            1.07802973        0.08321893        4.67183293
 C            2.33062375       -0.32519709        4.08013064
 C            2.26735238       -1.76401682        3.88901490
 C            0.24599821       -1.10752707        4.79173280
 C            0.87046458       -2.13571652        3.98757710
 C           -1.10758529       -0.71781601        4.47964717
 C            0.28132902        1.08379324        3.99050756
 C           -1.09014434        0.71693827        4.24569863
 C            0.62586027        1.49570782        2.69936151
 C            2.71385159        0.24931596        2.80936092
 C            1.86968657        1.14361585        2.15507661
 C            2.96383789       -2.07500270        2.65774526
 C            3.33045509       -0.80791646        2.03176780
 C            2.43661650       -3.07596251        1.85740842
 C            0.22959127       -2.62389613        2.84437698
 C            1.00038735       -3.32979771        1.92295394
 C           -1.75298844       -1.31813020        3.32837235
 C           -1.00492822       -2.08756862        2.44136482
 C           -2.05016514        0.98139593        3.20559029
 C           -2.61900382       -0.29160618        2.79097130
 C           -0.36716756        2.04043496        1.86214752
 C           -1.72214956        1.88079290        2.20186148
 C           -0.01116018        2.48579244        0.57616198
 C            2.10413378        1.38868753        0.80941307
 C            1.30754661        2.31591445        0.15023072
 C            3.31288504       -0.70006089        0.64211508
 C            2.87546971        0.49081860        0.06136127
 C            2.82072346       -3.09412895        0.46299667
 C            3.29471339       -1.85918168       -0.13063364
 C            0.51803157       -3.49150896        0.56559974
 C            1.67155076       -3.53128472       -0.30857064
 C           -1.38032562       -2.10565790        1.09067172
 C           -0.59150126       -2.77297101        0.14955596
 C           -3.04997788       -0.38757122        1.47394753
 C           -2.51469730       -1.39614286        0.66500528
 C           -2.67602962        2.00186734        1.20720575
 C           -3.43603721        0.80870799        0.87472948
 C           -1.00108299        2.85159214       -0.34963683
 C           -2.33771192        2.65673141       -0.03072485
 C           -0.66385860        3.09931426       -1.68352480
 C            1.68355799        2.71182857       -1.12741984
 C            0.67650033        3.22389578       -2.03452509
 C            2.85144426        0.58643633       -1.32769318
 C            2.55233164        1.82596841       -1.88450718
 C            2.74023631       -1.79956127       -1.47069366
 C            1.63614930       -2.74042774       -1.52545127
 C            2.55130511       -0.56138070       -2.06421952
 C           -0.72783099       -2.47020897       -1.20467835
 C            0.41046574       -2.27409719       -1.99213755
 C           -2.87940077       -1.44550467       -0.68278395
 C           -1.94669010       -1.99269112       -1.65255715
 C           -3.72469158        0.84972214       -0.54484211
 C           -3.23581091        2.12779696       -1.04074113
 C           -3.53130629       -0.29810921       -1.29797517
 C           -1.64114588        2.96272080       -2.67649353
 C           -2.86793030        2.25038231       -2.37005680
 C           -1.26719246        2.55776686       -4.01918271
 C            1.11125113        2.90333451       -3.38505272
 C            2.13130194        1.87829918       -3.27367195
 C            0.13618033        2.43531307       -4.34914490
 C            1.58643752       -0.47116333       -3.06247103
 C            0.41932611       -1.23638509       -2.92961266
 C            1.59405463        0.66647470       -3.85672756
 C            0.40609044        1.02547749       -4.59972177
 C           -1.98708923       -1.16073755       -2.84181996
 C           -3.04856899       -0.18163679       -2.66442771
 C           -2.90570870        1.07808141       -3.23453448
 C           -1.88609894        1.26376936       -4.25331583
 C           -0.79516558       -0.77967299       -3.45476792
 C           -0.81462566        0.28833089       -4.34917773
