   70
C70 / DATE: 7/ 1/2024 / Origin: Program Fullerene / C70 from database
 C            1.26849895        0.07232416        4.35469463
 C            2.58474179       -0.23105119        3.84228870
 C            2.60026113       -1.63914066        3.48324335
 C            0.43847784       -1.11382779        4.19491373
 C            1.22405842       -2.10770536        3.49649475
 C           -0.82340230       -0.69289950        3.61579531
 C            0.54172452        1.18056058        3.77436815
 C           -0.83794731        0.75531405        3.62629997
 C            1.11230435        1.94183264        2.75543491
 C            3.07033658        0.51130177        2.69531110
 C            2.25550902        1.47363682        2.09043999
 C            3.37105682       -1.77211671        2.25793818
 C            3.79219399       -0.43516290        1.86347601
 C            2.92471601       -2.66273088        1.28882326
 C            0.70561140       -2.69478933        2.34752830
 C            1.59499836       -3.23598226        1.42039414
 C           -1.31271899       -1.34681756        2.49147095
 C           -0.61949096       -2.44513641        1.96952637
 C           -2.27396662       -0.69692942        1.71051099
 C           -1.62560581        1.41331497        2.69291145
 C           -2.52078618        0.66976608        1.92471825
 C            0.27541617        2.84768824        2.11635501
 C           -1.16011437        2.62626579        2.18894872
 C            0.58114799        3.28839939        0.77055465
 C            2.49042451        1.82065510        0.75182639
 C            1.65022003        2.72212915        0.09122855
 C            3.96398640       -0.13685483        0.52115298
 C            3.45418709        1.12588754        0.02042676
 C            3.13108685       -2.36259827       -0.11971788
 C            3.68084493       -1.14604159       -0.49105776
 C            1.13210088       -3.57341690        0.08737091
 C            1.99154010       -2.88200086       -0.85848063
 C           -1.13728188       -3.10262776        0.85926800
 C           -0.22973716       -3.61091911       -0.15610292
 C           -2.87799334       -1.38209100        0.64723154
 C           -2.29445105       -2.55047702        0.17814907
 C           -3.75682281       -0.72278490       -0.20420050
 C           -3.38074541        1.36537265        1.08264787
 C           -4.12101105        0.64772278        0.07015850
 C           -1.75885344        3.18229694        0.98658041
 C           -0.67857466        3.49655364        0.06757211
 C           -2.91811692        2.60943801        0.49180073
 C           -0.77485207        3.13799510       -1.27642236
 C            1.65716383        2.78821182       -1.30200724
 C            0.40348443        3.01464119       -2.00867333
 C            3.28160086        0.96555767       -1.40925561
 C            3.15600491       -0.45891607       -1.65842672
 C            2.43060811        1.82884387       -2.07392302
 C            1.41106834       -2.12793987       -1.87855908
 C            2.01310417       -0.93442510       -2.30118909
 C           -0.72298820       -3.16014141       -1.44482220
 C           -2.08891086       -2.70497006       -1.25421518
 C            0.11451023       -2.44476055       -2.29579174
 C           -3.57839453       -0.86225974       -1.64254353
 C           -2.61079777       -1.74963510       -2.12370180
 C           -4.01340885        1.39773219       -1.17072340
 C           -3.08229899        2.48863831       -0.94416816
 C           -1.97440334        2.61880281       -1.78145411
 C           -3.73617119        0.45939964       -2.24076783
 C           -1.99979135        1.99720472       -3.03294867
 C           -2.87635219        0.85303554       -3.25406415
 C            0.43021391        2.21172117       -3.21808808
 C            1.55229581        1.29423743       -3.09934019
 C            1.33184361       -0.08232061       -3.17240826
 C           -0.76121399        1.75179412       -3.75218685
 C           -0.46654837       -1.72906593       -3.33416378
 C           -1.89348184       -1.43903455       -3.27989040
 C           -2.10916029       -0.16490709       -3.94007592
 C            0.20843369       -0.55123655       -3.84168505
 C           -0.80938194        0.39543893       -4.26679925
