   70
C70 / DATE: 7/ 1/2024 / Origin: Program Fullerene / C70 from database
 C            1.48257347       -0.04260968        4.75647589
 C            0.66052526       -1.22627747        4.58811337
 C            1.20421167       -2.00406922        3.48988449
 C            2.53765843       -0.09210763        3.76043577
 C            2.39060797       -1.31393089        3.00926936
 C            2.50956073        1.14838644        3.02574818
 C            0.65125148        1.11197270        4.45917547
 C            1.30203284        1.86299125        3.41604585
 C           -0.71445419       -0.78948072        4.49572870
 C           -0.69135135        0.64264143        4.21571994
 C           -1.59371856       -1.58037866        3.77598474
 C            0.32689540       -2.56154392        2.55486860
 C           -1.04981584       -2.52809403        2.80530516
 C            0.78029203       -2.77246754        1.24622434
 C            2.60773675       -1.28492970        1.64192511
 C            2.05380456       -2.31065057        0.89730406
 C            2.84258330        1.14091987        1.67420525
 C            2.93202087       -0.08322150        0.99047417
 C            2.48318754        2.27356986        0.95994984
 C            0.53710662        2.43516559        2.40674706
 C            1.25938681        2.95708642        1.34561622
 C           -1.40196025        1.13341086        3.11764744
 C           -0.76854801        1.96432503        2.17245771
 C           -2.72043543       -0.92328786        3.14825059
 C           -2.57516319        0.47257625        2.77282873
 C           -1.97879203       -2.59726592        1.68735010
 C           -3.05584248       -1.67048793        1.95169665
 C           -0.14645291       -3.06633854        0.23976482
 C           -1.46785638       -2.67238379        0.39882313
 C            0.30063508       -3.37608658       -1.03578444
 C            2.52482403       -2.48883084       -0.39066165
 C            1.70908780       -3.22124176       -1.33321460
 C            3.04815315       -0.09509715       -0.41137681
 C            3.07236310       -1.32896738       -1.06958877
 C            2.54859675        2.26173845       -0.48329029
 C            2.83433576        1.07891040       -1.14689572
 C            0.57569069        3.35696722        0.14114539
 C            1.47411432        3.10888320       -0.97521882
 C           -1.40075676        2.23938685        0.94121686
 C           -0.77150462        3.06731826       -0.00449222
 C           -3.11220420        0.61404933        1.43910308
 C           -3.39030066       -0.71343492        0.92408522
 C           -2.55120642        1.53141695        0.56608303
 C           -2.12317391       -2.02192713       -0.65722484
 C           -3.01545657       -0.97362947       -0.38510851
 C           -0.45377351       -2.88673511       -2.17636978
 C           -1.64419904       -2.19014105       -1.96667179
 C            1.83321674       -2.57586146       -2.62674251
 C            2.69733177       -1.42247574       -2.47178222
 C            0.49731346       -2.38197105       -3.15741636
 C            2.54111571        1.01619021       -2.50671532
 C            2.38637504       -0.26713519       -3.16558661
 C            0.92658232        2.85975372       -2.22889490
 C            1.55023137        1.92837534       -3.06331480
 C           -1.31364836        3.19766423       -1.28305611
 C           -0.41303796        3.18458712       -2.42902935
 C           -2.83842430        1.37865148       -0.78743634
 C           -3.08125600        0.08703958       -1.27736306
 C           -2.46894090        2.40524985       -1.64182695
 C           -2.09407300       -1.33833888       -2.97794861
 C           -2.92440495       -0.20540406       -2.62336009
 C            0.19378692       -1.20886079       -3.83991675
 C            1.16825892       -0.21157168       -3.96490331
 C            0.78218555        1.19045779       -4.05903206
 C           -1.14948250       -0.88104722       -3.98691110
 C           -1.13454903        2.62268956       -3.55709742
 C           -2.43607601        2.18921460       -3.07563622
 C           -2.67475814        0.85576167       -3.57744181
 C           -0.54224340        1.52556688       -4.29806869
 C           -1.52777335        0.46536466       -4.38027547
