   70
C70 / DATE: 7/ 1/2024 / Origin: Program Fullerene / C70 from database
 C            1.36308453       -0.13764755        4.33214866
 C            2.61577764       -0.51826788        3.71867624
 C            2.42810517       -1.81559459        3.08318529
 C            0.51940609       -1.31302553        4.33883876
 C            1.10831222       -2.28363500        3.43027713
 C           -0.84017137       -0.87903472        4.07126236
 C            0.60134939        0.94386273        3.73090967
 C           -0.75242285        0.45899124        3.50336815
 C            1.19693567        1.73420082        2.75382992
 C            3.17014974        0.36582381        2.72062299
 C            2.57006175        1.59786344        2.49121014
 C            2.75752742       -1.67009134        1.68238007
 C            3.50816162       -0.43681435        1.55992271
 C            1.79245774       -1.96176291        0.72510544
 C            0.28590942       -2.81468799        2.44474926
 C            0.62613997       -2.65056835        1.08595793
 C           -1.67706288       -1.78941723        3.45324287
 C           -1.05427227       -2.92309122        2.78881204
 C           -2.65981038       -1.29163252        2.51611773
 C           -1.38237868        0.73676367        2.28457551
 C           -2.38854626       -0.11668779        1.81312204
 C            0.37042582        2.32404697        1.79609267
 C           -0.82119721        1.69095513        1.43162021
 C            0.89342760        3.32322148        0.98937063
 C            3.11671975        2.33959690        1.45296671
 C            2.33325200        3.41339162        0.88055729
 C            3.54060329        0.20866712        0.33144508
 C            3.70434133        1.59401006        0.34978496
 C            1.86485237       -1.32163418       -0.51263095
 C            2.86919682       -0.37066715       -0.74707193
 C            0.90394770       -1.59559433       -1.49004261
 C           -0.30176208       -2.98451122        0.08691674
 C           -0.13586268       -2.48700917       -1.21229779
 C           -1.98997491       -3.40461810        1.80706233
 C           -3.09623150       -2.45842259        1.78510208
 C           -1.53154770       -3.53983602        0.44405656
 C           -3.46792529       -2.28978422        0.40499252
 C           -2.69317413       -3.24829241       -0.36673029
 C           -2.88694744        0.04452713        0.51072284
 C           -3.59992465       -1.00547049       -0.10424239
 C           -1.36702420        1.89476294        0.16108696
 C           -2.48628210        1.16176779       -0.23504934
 C            0.33493181        3.53521418       -0.33222269
 C           -0.76880042        2.79181383       -0.73634100
 C            2.67287270        3.50620295       -0.52732231
 C            3.50044976        2.35800523       -0.86696323
 C            1.44021725        3.72758776       -1.26159205
 C            2.95035758        0.25192352       -1.98804156
 C            3.24789441        1.67674620       -2.04943901
 C            0.88927165       -0.87190424       -2.68573641
 C            1.95384805       -0.04098262       -3.00027894
 C           -0.31198700       -0.71407957       -3.37881112
 C           -1.15558427       -2.65846002       -2.15582035
 C           -2.50455229       -2.97656456       -1.70901402
 C           -1.27013972       -1.71483345       -3.25855574
 C           -3.89988323       -0.93436794       -1.45872019
 C           -3.38999230       -1.99605922       -2.31146843
 C           -2.67524409       -1.37496088       -3.40541655
 C           -3.00917288        1.37991929       -1.50461571
 C           -3.73117185        0.31346036       -2.16286774
 C           -3.04580236        0.02256515       -3.41497404
 C           -1.03174733        2.68344610       -2.10335364
 C           -0.69388020        0.56491700       -3.81627724
 C           -2.16220770        1.98837838       -2.51051839
 C           -1.98866421        0.99615695       -3.55507120
 C            1.33107581        3.21164813       -2.54536122
 C            2.33981528        2.27227993       -3.01293620
 C            1.66028036        1.19022679       -3.70102408
 C            0.04067515        2.72313624       -2.99476441
 C            0.26951357        1.56393044       -3.84451976
