   70
C70 / DATE: 7/ 1/2024 / Origin: Program Fullerene / C70 from database
 C            1.27679426       -0.05389084        4.38415043
 C            2.52469789       -0.33242518        3.71470243
 C            2.49630856       -1.71785170        3.27544491
 C            0.43545840       -1.23521838        4.28456973
 C            1.21108392       -2.28501086        3.64914655
 C           -0.83007059       -0.83654629        3.68466281
 C            0.49863828        1.07417143        3.92489156
 C           -0.84407495        0.60962333        3.61889741
 C            1.06724747        2.01353966        3.07198825
 C            2.89329811        0.48868139        2.57626344
 C            2.17626829        1.65031697        2.28347998
 C            2.90047809       -1.75362938        1.87787401
 C            3.23583004       -0.40005889        1.48089037
 C            2.19863041       -2.56111716        0.99051140
 C            0.57242972       -3.11724324        2.74262689
 C            1.24802033       -3.44378980        1.50082092
 C           -1.33219981       -1.57173162        2.61832404
 C           -0.81018489       -2.83951405        2.38448314
 C           -2.02418186       -0.92078314        1.59447877
 C           -1.53504686        1.24634214        2.59362437
 C           -2.14298844        0.47804300        1.59430669
 C            0.19205315        2.97855373        2.58974411
 C           -1.17441645        2.56402295        2.30725597
 C            0.62348221        3.85439789        1.52377231
 C            2.32553888        2.19777953        1.00270522
 C            1.73998454        3.42681260        0.71458122
 C            2.95017343        0.01829423        0.18983345
 C            2.78110370        1.38115585       -0.03951990
 C            2.14438794       -2.20474756       -0.35989033
 C            2.46316860       -0.89725175       -0.74861701
 C            1.47654299       -3.04221626       -1.25513995
 C            0.23150013       -3.97740287        0.61722390
 C           -1.05129317       -3.48303209        1.10634435
 C            0.47115160       -3.96304168       -0.74644679
 C           -2.50802396       -1.66255479        0.50890510
 C           -1.94251850       -2.90624348        0.20696545
 C           -3.35028290       -1.04822177       -0.41642899
 C           -2.67701212        1.12039714        0.47734126
 C           -3.46329666        0.39844975       -0.40743576
 C           -1.56317697        3.15675241        1.04010630
 C           -0.50859427        4.06306438        0.63583211
 C           -2.15582308        2.35088798        0.08038918
 C            1.42036184        3.76609949       -0.65926405
 C           -0.01911914        3.98309458       -0.72509016
 C            2.72990914        1.82549242       -1.35666325
 C            2.03658361        3.06166525       -1.68084595
 C            2.10203276       -0.44232256       -2.02037252
 C            2.43132989        0.85561971       -2.39489048
 C            0.98619766       -2.49689396       -2.51030622
 C            1.14478377       -1.14119456       -2.75457976
 C           -0.67320249       -3.89761102       -1.63380744
 C           -1.91077840       -3.34480283       -1.11559087
 C           -0.29484976       -3.10941354       -2.79219983
 C           -3.33211554       -1.48655160       -1.80427202
 C           -2.47708940       -2.51689850       -2.16166831
 C           -1.41167043       -2.24578597       -3.11970485
 C           -3.55447994        0.85107993       -1.78179061
 C           -3.36479932       -0.30251882       -2.64256927
 C           -1.92277570        2.60538814       -1.27668222
 C           -0.76631185        3.28814762       -1.67325014
 C           -2.64589657        1.89254956       -2.22877889
 C            1.29686202        2.84223507       -2.91077773
 C            1.62549739        1.51518479       -3.40266260
 C           -0.15002232        2.94795430       -2.87595641
 C            0.15414694       -0.44211459       -3.45808139
 C           -1.15802939       -0.92904541       -3.49358278
 C           -2.22169945       -0.02833254       -3.49346174
 C           -1.95844235        1.39729467       -3.41003712
 C            0.39028586        0.87985285       -3.82479748
 C           -0.67779432        1.85406388       -3.67197523
