   70
C70 / DATE: 7/ 1/2024 / Origin: Program Fullerene / C70 from database
 C            1.60642016        0.00568913        4.60745676
 C            0.78476559       -1.18398213        4.49348184
 C            1.21812152       -1.92848789        3.32269731
 C            2.60399530       -0.05387892        3.55925848
 C            2.42975744       -1.30060206        2.83449988
 C            2.52885710        1.17969438        2.79558811
 C            0.75490556        1.15023422        4.33363215
 C            1.30068144        1.84539547        3.18866832
 C           -0.59478422       -0.75662012        4.54795032
 C           -0.60859713        0.67477052        4.25962882
 C           -1.53086096       -1.55121517        3.91063801
 C            0.25420843       -2.35847073        2.41005258
 C           -1.07079706       -2.42895192        2.83573476
 C            0.54743225       -2.34657790        1.03805095
 C            2.65704073       -1.26734986        1.47026287
 C            1.84037654       -2.01547098        0.62097848
 C            2.82999270        1.10466819        1.43834516
 C            3.26000449       -0.12702710        0.95492762
 C            2.18226483        1.96834212        0.54663171
 C            0.44815732        2.27109054        2.18242629
 C            1.02030768        2.62609335        0.96544213
 C           -1.44434081        1.15322449        3.24890681
 C           -0.91857255        1.95312494        2.22327890
 C           -2.73779633       -0.90495077        3.44264252
 C           -2.64751448        0.48567750        3.03653716
 C           -2.13049627       -2.51561178        1.85459865
 C           -3.21699578       -1.66168730        2.30756411
 C           -0.47926946       -2.46439407        0.08933804
 C           -1.81843069       -2.51659834        0.50086316
 C           -0.17534493       -2.37044050       -1.27843898
 C            2.16428426       -2.02822755       -0.73746411
 C            1.16481504       -2.27970531       -1.68583929
 C            3.71363890       -0.19001387       -0.34555349
 C            3.32687800       -1.34967506       -1.11655656
 C            2.46004478        1.83999065       -0.82085659
 C            3.46183594        0.95147810       -1.20048956
 C            1.51637604        2.26136123       -1.76373648
 C            0.22738582        3.28490801        0.03940310
 C            0.54886786        3.17518078       -1.37016503
 C           -1.71814418        2.28147124        1.12317187
 C           -1.21265240        3.17261031        0.17989851
 C           -3.32641741        0.61091999        1.75752202
 C           -3.78053241       -0.71663512        1.36459197
 C           -2.80558907        1.46563281        0.78973457
 C           -2.81243446       -2.10886341       -0.37982555
 C           -3.72901425       -1.05413313        0.02485492
 C           -1.21032432       -2.19667456       -2.21478485
 C           -2.47573706       -1.87612551       -1.76117628
 C           -0.90906220       -1.74505255       -3.48861319
 C            1.47505460       -2.23205816       -3.04978870
 C            0.43226734       -1.90125105       -3.99284799
 C            3.55279801       -0.99181437       -2.49945313
 C            3.51086435        0.46463829       -2.56593796
 C            2.64613964       -1.50306146       -3.49559306
 C            1.37293138        1.57700051       -2.98173740
 C            0.80411317       -0.64730450       -4.63306203
 C            2.43910697        0.82193698       -3.46933084
 C            2.17073466       -0.36302766       -4.26231740
 C           -1.38689886       -0.42505580       -3.87174613
 C            0.11408249        1.47607009       -3.59645617
 C           -0.21924323        0.32200780       -4.29650347
 C           -0.69343913        3.24149750       -2.10744951
 C           -1.78596091        3.19557781       -1.14918813
 C           -0.94326617        2.23970321       -3.12069164
 C           -3.14630460        1.25603832       -0.55339355
 C           -3.59969209        0.00625294       -0.95460437
 C           -3.04035503       -0.59251140       -2.15311439
 C           -2.33052295        0.20143254       -3.05472775
 C           -2.67414659        2.11981831       -1.53249601
 C           -2.19597033        1.56997573       -2.79531930
