   70
C70 / DATE: 7/ 1/2024 / Origin: Program Fullerene / C70 from database
 C            1.60922182        0.10864114        4.94287805
 C            0.82445643       -1.11127767        4.98340941
 C            1.56754563       -2.13338890        4.27230722
 C            2.70322427       -0.09992102        4.00702990
 C            2.71929281       -1.49608716        3.64710498
 C            2.56891413        0.87658202        2.94679423
 C            0.76367812        1.16004244        4.40476210
 C            1.44790831        1.73869966        3.27247846
 C           -0.52251556       -0.79225256        4.54212316
 C           -0.55880152        0.61766378        4.18079753
 C           -1.20804996       -1.70143519        3.74587634
 C            0.88639348       -2.91057746        3.25130591
 C           -0.48952951       -2.79698694        3.10350191
 C            2.70494242       -1.84477045        2.23921027
 C            1.71953325       -2.89148565        2.06418423
 C            2.72982736        0.50003314        1.61172483
 C            2.79534896       -0.85502480        1.25365598
 C            2.31089813        1.41021545        0.64891076
 C            0.68998289        2.20807684        2.21148472
 C            1.33176531        2.34586648        0.99421591
 C           -1.24497695        1.00260176        3.02973188
 C           -0.68681016        1.98113704        2.18907011
 C           -2.17722461       -1.19840526        2.78924533
 C           -2.25220165        0.16760916        2.54054463
 C           -1.06956996       -2.99253724        1.78539837
 C           -2.21418540       -2.11424654        1.66015238
 C            1.13896394       -3.00327840        0.81112454
 C           -0.24618521       -3.15602718        0.68211370
 C            2.47457649       -1.22498951       -0.06353138
 C            1.83525812       -2.45357107       -0.25847905
 C            2.49333822        1.09597804       -0.69124354
 C            2.41281909       -0.24397626       -1.06697995
 C            2.23934231        2.09362390       -1.62192032
 C            0.67252311        3.02663106       -0.01673466
 C            1.35359845        3.16851739       -1.22087855
 C           -1.40055540        2.40324747        1.06201218
 C           -0.72879943        3.05908649        0.01931866
 C           -2.97913148        0.57532498        1.43331955
 C           -2.64828024        1.83811421        0.81097864
 C           -2.54913249       -1.60888305        0.40454430
 C           -3.20653913       -0.38299810        0.36017939
 C           -0.80251624       -2.97514723       -0.58056674
 C           -1.85523756       -2.05556166       -0.72874860
 C            1.41708538       -2.81211614       -1.52748334
 C            0.03441801       -3.22603481       -1.65998419
 C            1.98441501       -0.59082266       -2.35884743
 C            1.69646092       -1.92556193       -2.63318259
 C            1.90117209        1.73514369       -2.98292045
 C            1.65039460        0.40421011       -3.29097842
 C            0.66712983        3.65317126       -2.39700207
 C            1.00339177        2.76299414       -3.49624273
 C           -1.45636964        3.42430598       -1.11648459
 C           -0.76963812        3.78498456       -2.34445520
 C           -3.14471921        1.76953597       -0.55150855
 C           -3.26726942        0.36040469       -0.88475215
 C           -2.60923373        2.62809276       -1.49279797
 C           -2.06320399       -1.41993169       -1.96402941
 C           -2.61230598       -0.13260717       -2.00712913
 C           -0.40246210       -2.87813465       -2.99163850
 C            0.73054708       -2.26027112       -3.66137791
 C           -1.52246210       -1.97484035       -3.12011946
 C            0.74910912        0.13266924       -4.32401838
 C            0.21046789       -1.20051696       -4.48979840
 C           -1.22328525       -1.11055167       -4.24187879
 C           -0.23421521        2.35870101       -4.14169306
 C           -1.33206679        2.97701789       -3.41592006
 C           -2.35328081        2.12397044       -2.82951315
 C           -2.28932829        0.74863012       -3.04921152
 C           -0.36533992        1.03600903       -4.53969209
 C           -1.55252175        0.29668510       -4.13974723
