   70
C70 / DATE: 7/ 1/2024 / Origin: Program Fullerene / C70 from database
 C            1.47803698        0.18448390        4.87544842
 C            0.69943507       -1.03588020        4.78948049
 C            1.55408987       -2.05380288        4.22243784
 C            2.68935039       -0.01077593        4.09347766
 C            2.74715190       -1.40089610        3.70631539
 C            2.70315648        0.99246194        3.04926929
 C            0.71163598        1.24072303        4.23962750
 C            1.56207383        1.86133312        3.24983040
 C           -0.54662339       -0.72948367        4.10604612
 C           -0.54820031        0.68827961        3.78667503
 C           -1.04204501       -1.61472517        3.15340973
 C            1.01157724       -2.86460300        3.15590449
 C           -0.34662969       -2.80535046        2.87718079
 C            2.84818534       -1.72436448        2.29391316
 C            1.92418896       -2.80779203        2.02665930
 C            3.00859290        0.63593854        1.73627984
 C            2.96096294       -0.71413553        1.34912042
 C            2.78784219        1.60543076        0.75543540
 C            0.97278779        2.37247547        2.10623952
 C            1.79714017        2.56322354        1.00440728
 C           -1.03162750        1.09339460        2.54371455
 C           -0.38743282        2.13591778        1.87134297
 C           -1.94164239       -1.11388600        2.20816267
 C           -1.84854366        0.22607204        1.81699548
 C           -2.64362796       -2.01405133        1.42089213
 C           -0.75201590       -3.55739291        1.78552163
 C           -2.07273027       -3.32995871        1.24513414
 C            1.37700909       -2.94984899        0.74828816
 C            0.17439280       -3.64433598        0.66317900
 C            2.65801058       -1.02911644        0.02684784
 C            1.69049225       -2.00617928       -0.24356539
 C            3.11453533        1.27771575       -0.55655323
 C            3.00539517       -0.11256991       -0.95075110
 C            2.63100127        2.09275975       -1.65598821
 C            1.28454067        3.32859980       -0.03173281
 C            1.78244582        3.15502863       -1.38303382
 C           -0.93855691        2.61086115        0.68042910
 C           -0.15692988        3.45765968       -0.10644513
 C           -2.32547493        0.63472097        0.56650172
 C           -1.99267417        1.90739132        0.09074392
 C           -3.16149015       -1.58821323        0.13452999
 C           -3.01282963       -0.26219400       -0.26186154
 C           -2.00292297       -3.59001064       -0.17698050
 C           -0.60043469       -3.59000046       -0.55574964
 C           -2.87859142       -2.64156727       -0.83045381
 C            0.91196385       -1.91975766       -1.41576109
 C           -0.19994764       -2.75415174       -1.59059413
 C            2.34367348       -0.15782594       -2.23608185
 C            2.33279641        1.19602288       -2.76204749
 C            1.22286006       -0.96464430       -2.39692652
 C            1.35838529        1.54394668       -3.68468618
 C            0.69127901        3.45855979       -2.29530407
 C           -0.50689570        3.69184838       -1.49362139
 C            0.60036837        2.77310858       -3.50211356
 C           -2.51335802        2.34189595       -1.12770382
 C           -1.74486508        3.26410178       -1.94967466
 C           -3.19001562        0.04683304       -1.61184403
 C           -3.14049051        1.37626708       -2.00999994
 C           -2.54588905       -2.25845341       -2.11683016
 C           -1.15972247       -2.41800359       -2.54130469
 C           -2.95671316       -0.94458375       -2.56363948
 C            0.31473068       -0.67173582       -3.42240509
 C            0.42863098        0.52409735       -4.13223478
 C           -0.88098582       -1.37272120       -3.50441525
 C           -2.12349726       -0.64112389       -3.71051468
 C           -0.70196686        2.58372960       -4.11738846
 C           -1.89289802        2.86665121       -3.33807818
 C           -2.74240863        1.68975696       -3.37522257
 C           -0.78065711        1.20369715       -4.56827637
 C           -2.06738456        0.66914814       -4.15965773
