   70
C70 / DATE: 7/ 1/2024 / Origin: Program Fullerene / C70 from database
 C            1.10433101       -0.01503663        5.37541489
 C            0.39480478       -1.18021386        4.87604230
 C            1.35380483       -2.02939265        4.21397937
 C            2.44299165       -0.03687555        4.80727357
 C            2.59273855       -1.27539098        4.07409640
 C            2.64024434        1.20940979        4.10104630
 C            0.42836231        1.16832252        4.86862590
 C            1.41868405        1.99545587        4.22837134
 C           -0.74122282       -0.71595868        4.10764589
 C           -0.70701153        0.73494524        4.08044179
 C           -1.09941522       -1.36836575        2.93141096
 C            1.01472574       -2.54342614        2.90167561
 C           -0.26201917       -2.34172471        2.36923427
 C            2.91685286       -1.23418371        2.65463872
 C            2.14888997       -2.29087667        2.03713355
 C            2.98879753        1.18437808        2.68791803
 C            3.03587410       -0.01816413        1.97973096
 C            1.11788528        2.52805475        2.91463078
 C            2.28870014        2.29908850        2.09434588
 C           -1.00889176        1.36777415        2.87253581
 C           -0.13641155        2.32222303        2.32746672
 C           -1.95536682       -0.68974960        2.07885779
 C           -1.87492664        0.70454624        2.01184669
 C           -2.46670937       -1.37167949        0.98955012
 C           -0.43471012       -2.65251262        1.01243521
 C           -1.64263340       -2.32316021        0.38094978
 C            1.88909385       -2.21585511        0.68390516
 C            0.71667712       -2.80383931        0.23580925
 C            2.80888977        0.01098081        0.59575295
 C            2.41788270       -1.15945290       -0.06030837
 C            2.08845752        2.29762158        0.73157361
 C            2.59075189        1.24186011       -0.02855632
 C           -0.24944422        2.64051130        0.96365130
 C            0.93596922        2.91344209        0.27751405
 C           -2.27400723        1.34227470        0.84299557
 C           -1.37449608        2.21908919        0.23614401
 C           -3.42301592       -0.70640634        0.23917469
 C           -3.25995690        0.72633142        0.08015265
 C           -3.83108117       -1.25742635       -1.03010301
 C           -1.81551346       -2.63840962       -0.97551941
 C           -2.97861787       -2.25254006       -1.64006493
 C            0.60128010       -3.00392364       -1.12477638
 C           -0.71492189       -3.04820161       -1.72380962
 C            2.13628010       -1.12149544       -1.42902160
 C            1.45060482       -2.20477049       -1.98680367
 C            2.36719506        1.29136192       -1.40774342
 C            2.17852752        0.09563402       -2.11669934
 C            0.89111808        3.19896508       -1.07040422
 C            1.82981005        2.48201330       -1.90678008
 C           -1.40394166        2.40619039       -1.15547909
 C           -0.38234137        3.13644273       -1.74798180
 C           -3.34534574        1.01121207       -1.33715704
 C           -3.95563874       -0.14920547       -1.96162451
 C           -2.27471022        1.65142175       -1.95276596
 C           -2.92159586       -1.94391033       -3.05971956
 C           -3.44840351       -0.59805624       -3.23713728
 C           -0.57038172       -2.61741607       -3.10739095
 C            0.77115151       -2.06989514       -3.26266919
 C           -1.64314304       -2.01371691       -3.74863031
 C            1.82026693        0.12677179       -3.46984497
 C            0.97114035       -0.92134956       -4.01199379
 C            1.31438328        2.55101300       -3.25532093
 C           -0.08723651        2.94110216       -3.15265776
 C            1.39145775        1.37015911       -4.08000009
 C           -1.95796931        1.36345200       -3.29398316
 C           -2.41698787        0.18472465       -3.88078793
 C           -1.44710927       -0.74570621       -4.43252328
 C           -0.15855564       -0.28542967       -4.67872980
 C           -0.86518344        1.97811999       -3.89670728
 C            0.07029230        1.14882453       -4.64027681
