   70
C70 / DATE: 7/ 1/2024 / Origin: Program Fullerene / C70 from database
 C            1.64222496        0.00961738        4.50888559
 C            0.80374031       -1.17146214        4.44034124
 C            1.32920659       -2.04583528        3.40379133
 C            2.64809982       -0.10201517        3.46821093
 C            2.45759283       -1.36460161        2.79187330
 C            2.59835904        1.10418920        2.67194517
 C            0.80853775        1.15468638        4.18839851
 C            1.46263330        1.88499407        3.12613708
 C           -0.57176184       -0.72726270        4.32603784
 C           -0.53838594        0.67906905        3.95140886
 C           -1.45634890       -1.56058050        3.66742909
 C            0.42134384       -2.72397916        2.58645280
 C           -0.92154347       -2.71932129        2.96851947
 C            0.76535217       -2.98333798        1.24777613
 C            2.56741195       -1.40094112        1.41327575
 C            1.96203786       -2.45085778        0.74453075
 C            2.80091288        1.01449173        1.29719155
 C            2.91989256       -0.24864939        0.69641904
 C            2.38296663        2.09170523        0.51703700
 C            0.68441464        2.48287421        2.14797571
 C            1.33659888        2.88982748        0.99194852
 C           -1.19856258        1.10228325        2.79585635
 C           -0.67999810        2.17212999        2.05986196
 C           -2.42833637       -0.96694473        2.77139385
 C           -2.15922744        0.27873779        2.20904601
 C           -1.93505960       -3.12792010        2.02226808
 C           -2.89420920       -2.03769504        1.91602213
 C           -0.17601142       -3.56132549        0.37525692
 C           -1.52720939       -3.48235213        0.68306113
 C            0.13593541       -3.71790130       -0.97059974
 C            2.34658159       -2.68240573       -0.56406588
 C            1.48275239       -3.45628124       -1.42203727
 C            3.06599607       -0.33727469       -0.69677057
 C            2.86838233       -1.56497095       -1.33077411
 C            2.70267647        2.08775526       -0.83358897
 C            3.01129070        0.82158549       -1.46961646
 C            1.92956700        2.88564054       -1.76886944
 C            0.63277903        3.71581149        0.12825349
 C            0.99081349        3.77700023       -1.27714523
 C           -1.40015453        2.65802441        0.96372343
 C           -0.81252735        3.68117462        0.21546358
 C           -2.60985795        0.57119754        0.91947557
 C           -2.39536543        1.84764544        0.39575270
 C           -3.08818695       -1.76200271        0.50956299
 C           -2.40601737       -2.79228410       -0.24672621
 C           -2.99884021       -0.45948591        0.05238041
 C           -0.78165173       -3.16697338       -1.95799629
 C           -1.91455861       -2.48014487       -1.51408274
 C            1.40754893       -2.78510513       -2.70854329
 C            2.23504850       -1.59427109       -2.64167456
 C            0.00899114       -2.64446360       -3.06203669
 C            2.32529471        0.79032992       -2.75389870
 C            1.58928819        2.03692121       -2.90213134
 C            1.76979071       -0.40502164       -3.19561568
 C            0.28725467        2.02305977       -3.40077123
 C           -0.22942941        3.99850956       -2.03053674
 C           -1.33579671        4.04263892       -1.08509488
 C           -0.58469493        3.06393543       -3.08311270
 C           -2.89933890        2.12249606       -0.87816548
 C           -2.41857467        3.26198362       -1.63220518
 C           -2.00111960        2.77914415       -2.93886532
 C           -2.88485862       -0.26773263       -1.31771140
 C           -2.24411341       -1.24533910       -2.09123074
 C           -3.05979629        1.02031807       -1.80811029
 C           -2.45038642        1.40616449       -3.06936022
 C           -0.40144590       -1.48217383       -3.69292757
 C            0.54584638       -0.38746815       -3.86651659
 C           -0.22774009        0.84437872       -3.93721085
 C           -1.66958437       -0.89335508       -3.31126679
 C           -1.62647002        0.49941605       -3.71370511
