   70
C70 / DATE: 7/ 1/2024 / Origin: Program Fullerene / C70 from database
 C            1.41615218       -0.16833612        5.62592122
 C            0.55922252       -1.32482901        5.49411517
 C            1.14261803       -2.18871363        4.48030010
 C            2.52101370       -0.33988871        4.69740667
 C            2.21675537       -1.47089051        3.83612894
 C            2.73118301        0.94376370        4.08323476
 C            0.65977216        0.98832411        5.17250306
 C            1.56141494        1.77253566        4.37184434
 C           -0.71565079       -0.86399146        4.97067635
 C           -0.56577890        0.51146434        4.55656449
 C            0.05922722       -2.62738747        3.64710771
 C           -1.10392848       -1.80847170        3.96151092
 C            0.30088018       -2.84946080        2.29912769
 C            2.17136451       -1.29842295        2.44343787
 C            1.31513655       -2.10399022        1.66716624
 C            2.91913965        0.99087606        2.65134502
 C            2.75851149       -0.16099004        1.87251526
 C            1.08940176        2.27501490        3.09869101
 C            2.22652149        2.18069928        2.21833297
 C           -0.85831333        0.84301015        3.22469656
 C           -0.14815930        1.87347781        2.58938559
 C           -1.83607623       -1.35626047        2.87525681
 C           -1.65961788       -0.02312402        2.45745071
 C           -0.84250405       -3.11804865        1.57370889
 C           -2.00918134       -2.31238161        1.89559995
 C           -0.76613849       -3.18792720        0.14107270
 C            1.27402274       -1.92037190        0.26901925
 C            0.30578180       -2.58194958       -0.50222065
 C            2.66371766        0.04373166        0.49334195
 C            2.05570833       -0.92144812       -0.31936898
 C            1.97988809        2.27209953        0.87191973
 C            2.65041537        1.37170301        0.06721939
 C           -0.37252394        2.12204453        1.23170190
 C            0.69465560        2.61026206        0.47136208
 C           -1.98777844        0.33451030        1.13524459
 C           -1.42763847        1.48796638        0.57496284
 C           -2.61302968       -1.93358909        0.65001663
 C           -2.10601827       -2.88495375       -0.31486573
 C           -2.63618623       -0.58917616        0.30246322
 C           -2.26561214       -2.57464656       -1.64197025
 C            0.15152094       -2.27290561       -1.85759610
 C           -1.07705299       -2.55515899       -2.46476296
 C            1.95109262       -0.66980687       -1.69682611
 C            1.03121419       -1.38230695       -2.47455454
 C            2.60867090        1.63618582       -1.28312041
 C            2.47901776        0.52284908       -2.18996947
 C            0.51438744        2.81464990       -0.89087227
 C            1.62339320        2.60774110       -1.71216215
 C           -1.65382544        1.78771526       -0.77431934
 C           -0.75330697        2.63657104       -1.43383528
 C           -2.85371774       -0.28082276       -1.04098163
 C           -2.94517259       -1.33675372       -1.95205042
 C           -2.53532938        0.99023291       -1.51369032
 C           -1.46222841       -1.85441879       -3.67371795
 C           -2.67041118       -1.09231821       -3.35215140
 C            0.82619330       -1.02938123       -3.81781826
 C           -0.46752940       -1.27144923       -4.43828847
 C            1.98043432        1.08116427       -3.43586010
 C            1.42752794        2.40036705       -3.12993040
 C            1.31362480        0.24606182       -4.31462454
 C           -0.92842108        2.92421532       -2.78604233
 C            0.21296095        2.78191650       -3.68033265
 C           -2.78443649        1.28748800       -2.85595332
 C           -2.80905827        0.20121848       -3.82520880
 C           -2.08978916        2.39959877       -3.46621108
 C           -0.80238498       -0.12510872       -5.26597379
 C            0.30412990        0.81049053       -5.19779440
 C           -0.24028200        2.12006500       -4.88638734
 C           -2.02416151        0.60477348       -4.97581652
 C           -1.68542907        2.00489299       -4.80707460
