   70
C70 / DATE: 7/ 1/2024 / Origin: Program Fullerene / C70 from database
 C            1.43017465       -0.17405105        5.57131478
 C            0.55631802       -1.31145887        5.78214667
 C            1.15741162       -2.45744512        5.11915425
 C            2.49573162       -0.59146083        4.67355124
 C            2.30819095       -1.98972529        4.36512345
 C            2.51814230        0.34241225        3.57039179
 C            0.66320926        0.85312170        4.88467156
 C            1.46157590        1.31534698        3.77411645
 C           -0.70502014       -1.02461383        5.11813668
 C           -0.64803350        0.32430122        4.58030611
 C            0.19539485       -2.96284559        4.15944295
 C           -0.97890714       -2.11000035        4.19796223
 C            2.11478990       -2.36671670        2.97262463
 C            0.87211376       -3.10962558        2.87989087
 C            2.69857187       -0.12277857        2.27151921
 C            2.40242195       -1.45613127        1.95570054
 C            2.51350330        0.80998803        1.26401506
 C            0.81207826        1.76310207        2.63121244
 C            1.57463014        1.82331629        1.47764367
 C           -1.15879515        0.54395523        3.30202687
 C           -0.55052733        1.49614005        2.47302847
 C           -1.56056011       -1.80096040        2.97822179
 C           -1.90078637       -0.47331010        2.70377991
 C            0.10889110       -2.94294450        1.72860672
 C           -1.23325720       -2.61019830        1.89836961
 C            1.90372564       -1.73118480        0.67498182
 C            0.74632976       -2.50971879        0.56133220
 C            2.72070740        0.39365449       -0.03928218
 C            2.25264731       -0.87523748       -0.37391042
 C            2.70726789        1.38568518       -1.00285736
 C            1.01887265        2.43943225        0.36646063
 C            1.81865059        2.50581765       -0.76250792
 C           -1.12710440        1.73993265        1.21905500
 C           -0.36735992        2.36565531        0.21305060
 C           -2.51528428       -0.20799227        1.48206436
 C           -2.26988391        1.02036790        0.86456372
 C           -2.01880278       -2.48199527        0.76999494
 C           -2.85159250       -1.30080199        0.68533405
 C           -0.00763043       -2.44726416       -0.61296689
 C           -1.38576612       -2.61869682       -0.52448339
 C            1.69306277       -1.08151496       -1.63893700
 C            0.51368845       -1.82130295       -1.74383571
 C            2.56544635        1.01740140       -2.39258896
 C            2.06894561       -0.24535008       -2.69649148
 C            1.23569132        2.87923893       -2.02969836
 C            2.00066629        2.18239146       -3.05162898
 C           -0.94846931        2.61844118       -1.04093418
 C           -0.14735186        2.95100762       -2.14450934
 C           -2.89221379        1.29951120       -0.34731956
 C           -2.27623089        2.25643182       -1.24858327
 C           -3.15404798       -1.09707441       -0.71700419
 C           -2.24712789       -1.94334356       -1.47950237
 C           -3.38017409        0.19386054       -1.15965481
 C           -0.31612298       -1.62832309       -2.84984869
 C           -1.68542011       -1.44088965       -2.64532261
 C            1.49998305       -0.44536340       -3.95308452
 C            0.25351105       -1.18443468       -4.03430954
 C            1.44449947        2.02769202       -4.30931137
 C            1.39964938        0.68665419       -4.86450846
 C           -0.69761415        2.97614003       -3.42891703
 C            0.15811772        2.65196249       -4.56401925
 C           -2.72411340        1.91498183       -2.58626092
 C           -3.08190233        0.50890903       -2.54334722
 C           -2.34223088       -0.39659644       -3.30314127
 C           -1.99459096        2.36579215       -3.67232193
 C           -0.59959553       -0.51921676       -5.00172308
 C            0.16490957        0.55174983       -5.61551855
 C           -0.58792016        1.78493001       -5.45879325
 C           -1.85710956        0.03074659       -4.53413633
 C           -1.83797457        1.46049632       -4.79853489
