   70
C70 / DATE: 7/ 1/2024 / Origin: Program Fullerene / C70 from database
 C            1.23674955       -0.27309846        4.35473882
 C            2.51643943       -0.59968422        3.76866648
 C            2.43417729       -1.94617379        3.22368299
 C            0.40928190       -1.46769969        4.30354717
 C            1.11376747       -2.46937470        3.52612765
 C           -0.91995240       -1.06084776        3.88637336
 C            0.47020283        0.82135575        3.78284796
 C           -0.91175557        0.38681424        3.73086351
 C            0.99049937        1.54840849        2.71260283
 C            3.02483435        0.25660704        2.72038334
 C            2.35143733        1.43058507        2.39150239
 C            2.87369431       -1.89036033        1.83572261
 C            3.47738241       -0.59229292        1.63206133
 C            2.05784326       -2.41430692        0.84314706
 C            0.42488531       -3.15094191        2.53418219
 C            1.01336804       -3.25893650        1.20797348
 C           -1.62496350       -1.83013821        2.96245114
 C           -1.00385864       -2.92321622        2.35750227
 C           -2.72695895       -1.24943678        2.34301157
 C           -1.76393224        0.95390049        2.79393210
 C           -2.85454595        0.19704656        2.37664846
 C            0.10110340        2.13297767        1.80052576
 C           -1.28097217        1.96547188        1.96109446
 C            0.59110703        2.83451883        0.69672777
 C            2.84291930        2.11742025        1.28931411
 C            1.95893831        2.98548341        0.54157998
 C            3.49726934       -0.03553528        0.36039999
 C            3.59546235        1.34990131        0.31188860
 C            2.05400217       -1.82990599       -0.42564793
 C            2.85127242       -0.70238635       -0.69188812
 C            1.19208779       -2.33275499       -1.40578917
 C           -0.06954457       -3.49265559        0.27523716
 C           -1.32420525       -3.26594000        0.97964299
 C            0.05120672       -3.04638654       -1.03163863
 C           -3.14167152       -1.69502330        1.02038603
 C           -2.36207652       -2.61085307        0.32093868
 C           -3.60920513        0.60595828        1.20803116
 C           -3.71261633       -0.54923004        0.32450203
 C           -2.15384563        2.56138847        1.05024827
 C           -3.36806477        1.85718924        0.66534348
 C           -0.25228635        3.11124661       -0.37765231
 C           -1.61474512        3.19823887       -0.13873127
 C            0.21901544        2.98069090       -1.69222034
 C            2.50098470        3.09027537       -0.79968521
 C            3.47938743        2.02364558       -0.95804270
 C            1.59024025        3.01484777       -1.92798022
 C            2.82775043       -0.11720258       -1.96770347
 C            3.09015879        1.24639218       -2.11187577
 C            2.16438174        2.07091143       -2.86949468
 C            1.31927202       -1.90002505       -2.71968106
 C            2.17666028       -0.76799998       -3.01091592
 C            0.12939325       -1.79238665       -3.55206480
 C           -1.11724946       -2.89919307       -1.76980647
 C           -2.34803491       -2.57067804       -1.07125477
 C           -1.09457165       -2.15597159       -3.01475611
 C           -3.51118576       -0.40177772       -1.04790004
 C           -2.96771633       -1.45587187       -1.77248709
 C           -2.17872506       -1.18095831       -2.96644840
 C           -3.55496963        2.03753571       -0.75974649
 C           -2.53018230        2.95149275       -1.23151430
 C           -3.54006889        0.86724080       -1.61950996
 C           -0.62661522        2.50090686       -2.70029062
 C           -1.96056447        0.13946321       -3.36726466
 C           -1.99395610        2.42058763       -2.46680093
 C           -2.67392501        1.16506907       -2.74984522
 C            1.33023348        1.45275400       -3.78552793
 C            1.51665447        0.03371906       -4.02977079
 C            0.21375034       -0.55106237       -4.29007176
 C           -0.10181637        1.70185653       -3.71392191
 C           -0.79303252        0.46840548       -4.05590010
