   70
C70 / DATE: 7/ 1/2024 / Origin: Program Fullerene / C70 from database
 C            1.36255120        0.04254984        4.33605938
 C            2.65002927       -0.26204774        3.76225285
 C            2.63190768       -1.65096324        3.33253521
 C            0.52475435       -1.14067563        4.21679859
 C            1.28538778       -2.16312149        3.52578746
 C           -0.74946761       -0.73326657        3.65567997
 C            0.62056428        1.16206173        3.79607966
 C           -0.73176194        0.70964206        3.50906425
 C            1.22411478        2.05055727        2.90634695
 C            3.11047321        0.54003016        2.64809514
 C            2.45767893        1.72592297        2.30992402
 C            3.22112015       -1.72127872        2.00542728
 C            3.50174485       -0.36176054        1.57543037
 C            2.68836856       -2.61747727        1.09328518
 C            0.67845212       -2.85795823        2.48428498
 C            1.47959322       -3.34004259        1.45038755
 C           -1.30636473       -1.49126825        2.63948380
 C           -0.68918619       -2.68660567        2.25636212
 C           -2.20303645       -0.87232500        1.77227247
 C           -1.41486203        1.30399681        2.44858666
 C           -2.07623144        0.49419291        1.51504916
 C            0.37435347        2.96273422        2.28416593
 C           -1.01575555        2.58145699        2.08045967
 C            0.80885855        3.69898742        1.11276069
 C            2.79934650        2.28462268        1.07961356
 C            1.99813478        3.34467762        0.49930902
 C            3.25623340        0.02855277        0.25907022
 C            3.20701616        1.39282337        0.00420976
 C            2.53877684       -2.20742881       -0.29115698
 C            2.62132445       -0.85569167       -0.62075608
 C            0.86153822       -3.77492309        0.21058271
 C            1.47948349       -3.01967146       -0.86834500
 C           -1.30707941       -3.47772509        1.29318896
 C           -0.50873998       -3.97710192        0.18416941
 C           -2.97312182       -1.66193987        0.93333174
 C           -2.58732488       -3.04837592        0.75764187
 C           -3.36618345       -1.13974998       -0.36152900
 C           -2.43450166        1.00387107        0.25472367
 C           -3.00591005        0.16063037       -0.70932609
 C           -1.45022346        3.13254026        0.81687470
 C           -0.36819625        3.95941082        0.30063205
 C           -2.18945843        2.34496827       -0.05908911
 C           -0.23377839        4.10090696       -1.07319611
 C            2.04458812        3.18462153       -0.94645308
 C            2.60572711        1.87372691       -1.22168131
 C            0.98234499        3.62576229       -1.72178996
 C            1.85708726       -0.36681944       -1.68902046
 C            1.90202903        0.99043762       -2.03113670
 C            0.67850851       -2.47052338       -1.86150533
 C            1.04987951       -1.24464321       -2.41786833
 C           -1.23393212       -3.68986426       -1.03963968
 C           -2.58871182       -3.33063302       -0.66473984
 C           -3.20936885       -2.20687211       -1.34002142
 C           -0.61643093       -2.96791565       -2.05880231
 C           -2.74420116       -1.87466982       -2.60228844
 C           -1.43550896       -2.37027902       -3.01352246
 C           -2.95737251        0.51133885       -2.06235174
 C           -2.81913754       -0.49030186       -3.02251557
 C           -2.32927297        2.77831648       -1.37400831
 C           -1.35474133        3.71280304       -1.91041466
 C           -2.62405009        1.81501465       -2.41675311
 C            0.58159048        2.82934640       -2.86914820
 C            1.01665228        1.50694629       -2.98250616
 C           -0.81364204        3.12787392       -3.12221818
 C           -1.68133573        2.03637699       -3.50972748
 C            0.40624714       -0.79449763       -3.56219818
 C           -0.86206382       -1.39337430       -3.91889662
 C           -1.82711436       -0.31897459       -4.06534193
 C            0.29836808        0.63299598       -3.79575519
 C           -1.09676078        0.93006953       -4.10622400
