   70
C70 / DATE: 7/ 1/2024 / Origin: Program Fullerene / C70 from database
 C            1.22553134        0.04009922        4.30585609
 C            2.50261723       -0.20006222        3.67052712
 C            2.55609096       -1.60942826        3.33819149
 C            0.40374318       -1.14904102        4.13052827
 C            1.20606692       -2.13838530        3.44164824
 C           -0.85142774       -0.73390381        3.53205485
 C            0.44472862        1.16535521        3.84792508
 C           -0.91697549        0.70625025        3.63650699
 C            0.98232061        2.03542916        2.90572465
 C            2.82950773        0.54779625        2.46720651
 C            1.97148463        1.55693321        2.03534080
 C            3.24209961       -1.73369993        2.06679087
 C            3.35475150       -0.39642875        1.49778974
 C            2.86254197       -2.77192275        1.23106416
 C            0.67345994       -2.80048999        2.33980148
 C            1.56724995       -3.39856224        1.45260575
 C           -1.25855819       -1.32822122        2.35010292
 C           -0.61999139       -2.48835305        1.90271999
 C           -2.12635431       -0.63446809        1.50215282
 C           -1.69022542        1.42441912        2.73116892
 C           -2.34453729        0.74399469        1.68956723
 C            0.12363045        3.02439864        2.45283196
 C           -1.30020186        2.74348319        2.52506440
 C            0.36189890        3.63295326        1.16235966
 C            1.89368753        1.84933555        0.66727720
 C            1.17787229        2.97524113        0.25028384
 C            3.07601167       -0.21026738        0.14639664
 C            2.45500885        0.97145908       -0.27737105
 C            2.99739356       -2.59275691       -0.19932589
 C            3.14490391       -1.30753276       -0.71561907
 C            1.09498074       -3.90367534        0.17364532
 C            2.06793012       -3.51312937       -0.83510217
 C           -1.15101256       -3.16621748        0.81322611
 C           -0.26032531       -3.84427000       -0.11518764
 C           -2.72752802       -1.31391772        0.43714738
 C           -2.21024937       -2.54471924        0.04133143
 C           -3.45844658       -0.60187065       -0.50619183
 C           -3.05867605        1.47733658        0.72783117
 C           -3.68953692        0.81332604       -0.31667697
 C           -1.95306555        3.52551363        1.50415118
 C           -0.91330532        4.17024717        0.71635786
 C           -2.83795214        2.84767403        0.58739342
 C           -1.27867897        4.04397035       -0.68287967
 C           -2.58035976        3.39552453       -0.73460980
 C            0.99616255        3.21850414       -1.10580724
 C           -0.29778134        3.68041953       -1.59464522
 C            2.30213311        1.21383007       -1.64887958
 C            1.52401699        2.28360109       -2.07337446
 C            2.95364261       -1.11661576       -2.07684679
 C            2.47302502        0.16509447       -2.54874683
 C            1.65301468       -3.25121871       -2.13464260
 C            2.27892121       -2.15145866       -2.84524469
 C           -0.70015983       -3.53713391       -1.46749913
 C           -1.91365314       -2.74738279       -1.36734844
 C            0.23093383       -3.22503986       -2.44857716
 C           -3.17211442       -0.82463337       -1.91676387
 C           -2.13698855       -1.69066764       -2.24334553
 C           -3.70950805        1.43376007       -1.63309808
 C           -2.93258601        2.64108816       -1.84609615
 C           -3.27050220        0.44437106       -2.60113232
 C           -0.65293895        2.87291899       -2.75058844
 C            0.48796001        2.03267320       -3.06271742
 C           -1.93268735        2.34603912       -2.86425249
 C           -2.08948092        0.95542919       -3.26171847
 C            1.42608166       -0.08270946       -3.53036037
 C            1.26366873       -1.51267698       -3.66390069
 C           -0.01835645       -2.08743326       -3.32012531
 C           -1.08222589       -1.23124350       -3.04438175
 C            0.29761669        0.72525830       -3.49533402
 C           -0.96629794        0.13580970       -3.35218040
