   70
C70 / DATE: 7/ 1/2024 / Origin: Program Fullerene / C70 from database
 C            1.52869063       -0.37715164        5.09505736
 C            0.67666402       -1.54586919        4.97245356
 C            1.20703157       -2.37023469        3.90299550
 C            2.58415378       -0.48890817        4.10241259
 C            2.36685368       -1.69792769        3.34337678
 C            2.63284805        0.75765201        3.37559217
 C            0.73515941        0.79092205        4.75190049
 C            1.48129723        1.55471186        3.78008255
 C           -0.63588607       -1.09460410        4.55035197
 C           -0.58813404        0.34744849        4.38136755
 C            0.11016504       -2.69266490        3.00286382
 C           -1.03695612       -1.89864113        3.40581239
 C            0.38906463       -2.78633041        1.64411566
 C            2.46459283       -1.64162739        1.95876540
 C            1.69566148       -2.53884250        1.22808655
 C            2.96006017        0.74005885        2.02302425
 C            2.92132776       -0.47600493        1.32134736
 C            2.71162713        1.91387401        1.32931007
 C            0.79197197        2.24072264        2.78457887
 C            1.56349219        2.70857750        1.73260915
 C           -1.17076901        0.87469324        3.23575283
 C           -0.55656581        1.93129879        2.54300652
 C           -1.78271480       -1.28304194        2.40699960
 C           -2.07542576        0.07143390        2.55275193
 C           -0.64845587       -2.58411245        0.73025221
 C           -1.75133659       -1.82072790        1.11766404
 C           -0.38634985       -2.77905348       -0.62585553
 C            2.00213630       -2.71026336       -0.10650031
 C            0.92653925       -3.03960008       -1.01714174
 C            3.00710490       -0.47892416       -0.08241486
 C            2.80431480       -1.68885458       -0.75111529
 C            2.77080318        1.91883060       -0.11375488
 C            2.95431174        0.72702843       -0.79710689
 C            0.92045413        3.19960265        0.53621077
 C            1.77165712        2.86051795       -0.59306684
 C           -1.19578515        2.43022267        1.39392583
 C           -0.45422132        3.08632996        0.40018952
 C           -2.88463815        0.67225170        1.61008157
 C           -2.48387972        1.97151693        1.10647466
 C           -2.57930253       -1.26117284        0.14446609
 C           -3.30158213       -0.11301451        0.46807272
 C           -1.32081672       -2.38498329       -1.58611317
 C           -2.42805139       -1.61858716       -1.19717773
 C           -0.98151570       -2.51643886       -2.93616502
 C            1.37230094       -2.65625628       -2.34245076
 C            2.46253654       -1.70591740       -2.16472822
 C            0.41500638       -2.43523638       -3.31915557
 C            2.68412294        0.72836885       -2.16421396
 C            2.46105822       -0.51661210       -2.87388985
 C            1.19191641        2.65691982       -1.84227368
 C            1.76856040        1.72520875       -2.70270937
 C           -0.98539668        3.26833653       -0.87523787
 C           -0.13322035        3.04158687       -2.03468664
 C           -3.03354398        2.09831999       -0.23411420
 C           -3.66202510        0.82835233       -0.57403860
 C           -2.31668119        2.79040130       -1.19561544
 C           -3.21765720       -0.96866157       -2.15067478
 C           -3.66183599        0.38662039       -1.88708684
 C           -1.72819153       -1.80920893       -3.95500913
 C           -2.86814174       -1.02016778       -3.55457945
 C            0.54555491       -1.29040659       -4.20686767
 C            1.44493274       -0.28090215       -3.88841660
 C            0.96316232        1.08493058       -3.73155714
 C           -0.79311169       -0.92516489       -4.63529235
 C           -0.93760708        2.40059742       -3.06389124
 C           -2.30577664        2.31522388       -2.57089011
 C           -3.09438974        1.22905458       -2.92825998
 C           -2.63463628        0.34948424       -3.98842047
 C           -0.40050371        1.35882124       -3.81769427
 C           -1.25202917        0.43619443       -4.42378589
