   70
C70 / DATE: 7/ 1/2024 / Origin: Program Fullerene / C70 from database
 C            1.33149968       -0.02852601        4.90037482
 C            0.55512720       -1.20906869        4.56054711
 C            1.43458356       -2.11959756        3.87068127
 C            2.58336336       -0.09912873        4.16553852
 C            2.67836751       -1.41516450        3.58283797
 C            2.63878266        1.04342443        3.28015746
 C            0.60291519        1.13233184        4.41937923
 C            1.46374804        1.86623551        3.52252236
 C           -0.65157454       -0.77201223        3.88297590
 C           -0.66278399        0.67918211        3.90153213
 C           -1.08356659       -1.41740815        2.71762603
 C            0.97652858       -2.69806170        2.62717342
 C           -0.31761620       -2.45404856        2.16154439
 C            2.92098246       -1.52634776        2.15411904
 C            2.06570867       -2.58956314        1.67847141
 C            3.06453650        0.89040134        1.96260526
 C            3.05149685       -0.38298673        1.36637075
 C            2.90759697        2.00526382        1.15175736
 C            0.89829303        2.52060190        2.43014026
 C            1.76927814        2.87536829        1.40843156
 C           -1.18938902        1.31505619        2.79261144
 C           -0.45075865        2.29779860        2.11361098
 C           -2.00821729       -0.74406687        1.90542884
 C           -2.16716265        0.63198455        2.09000215
 C           -2.45348109       -1.34406863        0.72107989
 C           -0.59205361       -2.85264372        0.85522213
 C           -1.81541114       -2.50941344        0.28554377
 C            1.72681082       -2.62114325        0.33914315
 C            0.48879712       -3.15253117        0.02007190
 C            2.84376945       -0.50502662       -0.01601307
 C            2.28169687       -1.68502349       -0.53574990
 C            3.03876229        1.87171557       -0.28066134
 C            3.04862084        0.60152523       -0.84274627
 C            1.24146420        3.30114916        0.12733631
 C            2.21295554        2.90903598       -0.87728536
 C           -0.97842758        2.80590348        0.91653195
 C           -0.11497151        3.14910045       -0.13669574
 C           -2.92496838        1.36500643        1.20015543
 C           -2.32662622        2.56842316        0.65429363
 C           -3.33755755       -0.65256970       -0.12395851
 C           -3.62049592        0.68396698        0.13240097
 C           -3.60384243       -1.13205057       -1.40442393
 C           -2.16726133       -3.09868845       -0.92525119
 C           -3.10202344       -2.42743539       -1.79957445
 C            0.25930219       -3.45983880       -1.30759210
 C           -1.10755362       -3.62539345       -1.76049480
 C            1.95129191       -1.77435904       -1.89719737
 C            0.98060471       -2.69429249       -2.30811227
 C            2.85181505        0.48652424       -2.21312218
 C            2.22918339       -0.70744470       -2.74514259
 C            1.79465490        2.75099937       -2.18663834
 C            2.31347902        1.62463490       -2.94123827
 C           -0.54598756        3.10218714       -1.47302445
 C            0.37835545        2.86717847       -2.49059837
 C           -2.83375633        2.73858687       -0.68824381
 C           -3.70065240        1.60917562       -0.98454056
 C           -1.88378930        2.86563246       -1.76723682
 C           -3.43117565       -0.24093271       -2.54270408
 C           -3.37129816        1.12294208       -2.31214742
 C           -2.20600691        1.86181381       -2.77106801
 C           -2.46138527       -2.26776074       -3.09872566
 C           -1.21908684       -3.00063867       -3.06761470
 C            0.01321345       -2.28182748       -3.31173430
 C           -2.42407196       -0.84714294       -3.38993953
 C            1.21560336       -0.29442700       -3.70783760
 C            1.25596383        1.14307976       -3.81324804
 C            0.05313745        1.88093391       -3.51023287
 C           -1.15745329        1.20226339       -3.41369311
 C           -0.01228762       -0.94381342       -3.69263930
 C           -1.19959620       -0.19498052       -3.56109246
