   70
C70 / DATE: 7/ 1/2024 / Origin: Program Fullerene / C70 from database
 C            1.07030907       -0.11862290        4.97337768
 C            2.34280355       -0.30653160        4.30576915
 C            2.28239272       -1.58743636        3.61810880
 C            0.24722155       -1.27992103        4.66756330
 C            0.90029091       -2.00005919        3.59121330
 C           -1.10413152       -0.81534129        4.46645796
 C            0.28105195        1.06373888        4.67793912
 C           -1.09961834        0.63643676        4.58030207
 C            0.76037723        2.01417758        3.78148245
 C            2.79667523        0.68397576        3.34393746
 C            2.04327900        1.82569708        3.11296569
 C            2.95310355       -1.43282676        2.35198681
 C            3.34019949       -0.03860444        2.21137943
 C            2.42766855       -2.05632370        1.22889739
 C            0.27123448       -2.12468232        2.34935984
 C            1.05088288       -2.33390905        1.19580833
 C           -1.76982907       -1.14276905        3.22293588
 C           -1.09139450       -1.82306235        2.21694405
 C           -1.92752558        1.15574664        3.50620646
 C           -2.54978544        0.01551313        2.84991914
 C           -0.14748906        2.64022379        2.82963543
 C           -1.47339781        2.21230782        2.71884020
 C            1.92154806        2.32967657        1.75375651
 C            0.61338868        2.93985290        1.62263480
 C            3.28689403        0.51160726        0.93186231
 C            2.43450445        1.59734765        0.68722707
 C            3.06384864       -1.73855727        0.04201076
 C            3.53982098       -0.37217243       -0.10955730
 C            2.46939435       -2.13131949       -1.21204581
 C            0.40547850       -2.53694103       -0.03661385
 C            1.13211913       -2.49762691       -1.23730539
 C           -1.65154170       -1.81626207        0.94681930
 C           -0.98770639       -2.48147153       -0.07355989
 C           -2.93452683        0.15080348        1.52270544
 C           -2.64410138       -0.87947055        0.62725030
 C           -2.15274248        2.46214689        1.53082322
 C           -3.04700497        1.43592113        1.01965214
 C           -0.03339909        2.90971583        0.39414220
 C           -1.41753112        2.98332501        0.39069851
 C            1.87639733        1.77357297       -0.58615472
 C            0.61732106        2.37961149       -0.72319760
 C            3.25878186        0.02939923       -1.46929063
 C            2.95590721       -1.19017497       -2.20016871
 C            2.47763210        1.15752379       -1.68629017
 C            2.27251444       -1.08309772       -3.39718699
 C            0.45964405       -2.47605226       -2.46242037
 C            1.04975602       -1.85293113       -3.56798046
 C           -1.65878018       -2.68165283       -1.27092598
 C           -0.89332101       -2.78641860       -2.49566999
 C           -3.06669450       -0.76877994       -0.70091435
 C           -2.81614778       -1.85087708       -1.54651677
 C           -3.14174810        1.61527944       -0.41305733
 C           -2.14327403        2.59911768       -0.80223010
 C           -3.31676973        0.50764360       -1.23485096
 C           -0.05377683        2.33480564       -1.95196919
 C           -1.45159729        2.39010668       -1.98866952
 C            1.95033751        1.35199972       -2.95876829
 C            2.01375729        0.25078916       -3.90727875
 C            0.64979397        1.97944975       -3.09804015
 C            0.22222744       -1.13443609       -4.52713530
 C            0.76356211        0.21042961       -4.64141139
 C           -0.04454442        1.33389005       -4.20374348
 C           -1.71957897       -2.27452076       -3.57644245
 C           -2.91823752       -1.70004448       -2.98550256
 C           -1.15561806       -1.30015780       -4.49316743
 C           -3.13944020        0.73673990       -2.59684847
 C           -2.13628986        1.71036218       -2.99429598
 C           -1.42029321        1.17597193       -4.13694321
 C           -3.08886945       -0.37234705       -3.52395460
 C           -2.00541293       -0.11950496       -4.46050437
