   70
C70 / DATE: 7/ 1/2024 / Origin: Program Fullerene / C70 from database
 C            1.73286066       -0.03273614        4.68917062
 C            0.87133352       -1.19407471        4.62318560
 C            1.23111665       -1.96511006        3.44065307
 C            2.63093455       -0.09378905        3.55265723
 C            2.32629096       -1.28120566        2.77927593
 C            2.55153703        1.17665857        2.87261975
 C            0.89446008        1.14478755        4.52534031
 C            1.36494959        1.86335118        3.35419281
 C           -0.49825329       -0.73145070        4.75160889
 C           -0.48847120        0.71644046        4.57276514
 C           -1.48418803       -1.48489649        4.13393850
 C            0.20638835       -2.50753841        2.67372888
 C           -1.06931891       -2.55124558        3.23794052
 C            0.35270746       -2.58827532        1.28066105
 C            2.31471218       -1.16576148        1.39340172
 C            1.42571902       -1.93401286        0.64858424
 C            2.76276368        1.19521466        1.50964416
 C            2.84806829       -0.01500070        0.81333778
 C            2.22898581        2.26923739        0.82706151
 C            0.44760649        2.34558557        2.41177858
 C            0.90117086        2.58905182        1.10672060
 C           -1.39772002        1.31116408        3.70510044
 C           -0.91963275        2.19114209        2.64335963
 C           -2.60474626       -0.81638432        3.49290699
 C           -2.50421556        0.53154737        3.17485850
 C           -2.20701376       -2.85604074        2.40392438
 C           -3.13285596       -1.73510548        2.50273337
 C           -0.67735562       -3.15072590        0.51270853
 C           -1.98006288       -3.10755032        1.00036920
 C           -0.54215507       -3.21030149       -0.86883530
 C            1.48138387       -1.85659953       -0.74416414
 C            0.64678783       -2.66762752       -1.49333780
 C            2.94796233        0.06200153       -0.57802835
 C            2.16816328       -0.80392517       -1.36349217
 C            2.70904945        2.46813765       -0.44872153
 C            3.29454176        1.30916058       -1.08999588
 C            1.82111170        3.03975233       -1.42753028
 C           -0.01808462        2.64445836        0.04484447
 C            0.45347028        2.82906365       -1.26005388
 C           -1.81832490        2.04859698        1.51269422
 C           -2.74977232        0.97447482        1.80777914
 C           -1.30726161        2.15544584        0.22901815
 C           -3.37538642       -1.26085414        1.15207110
 C           -2.95818692       -2.32868994        0.26366849
 C           -3.05808246        0.05096378        0.80935045
 C           -1.67380889       -2.77703160       -1.67040055
 C           -2.66121404       -2.01623549       -1.05304055
 C            0.28670947       -2.26906849       -2.84084883
 C           -1.16551017       -2.34878922       -2.95555762
 C            1.95879860       -0.53365369       -2.73279235
 C            0.95325476       -1.20741929       -3.44334773
 C            3.23091388        1.54296918       -2.51207770
 C            2.45146467        2.76078818       -2.70108227
 C            2.62922968        0.52974899       -3.34300666
 C            1.61021101        2.55429059       -3.85232230
 C            1.97789361        1.26281197       -4.41026656
 C           -0.32430463        2.39527118       -2.34815464
 C            0.17797369        2.51354427       -3.65075288
 C           -1.91563774        1.44961415       -0.80178475
 C           -2.69568400        0.32234319       -0.51103170
 C           -2.82153898       -0.69342258       -1.46309967
 C           -1.51635746        1.69164171       -2.11328457
 C           -1.83736683       -1.32736029       -3.60940537
 C           -2.59897796       -0.38592849       -2.79976863
 C           -2.11079550        0.93883962       -3.12532444
 C            0.34172038       -0.59777045       -4.54394859
 C            0.77858473        0.70760799       -4.98905281
 C           -0.30887882        1.63135472       -4.69046317
 C           -1.10516516       -0.55723103       -4.59312120
 C           -1.48450146        0.83575034       -4.42555909
