   70
C70 / DATE: 7/ 1/2024 / Origin: Program Fullerene / C70 from database
 C            1.54388665       -0.14679763        5.12470422
 C            0.72768152       -1.33921468        5.21278156
 C            1.28262718       -2.31134164        4.29138576
 C            2.53622664       -0.35752883        4.07983290
 C            2.29586588       -1.64922920        3.48446955
 C            2.50012174        0.79644134        3.21848516
 C            0.68442409        0.93347996        4.68024426
 C            1.41619074        1.64843349        3.66852492
 C           -0.60181735       -1.00555632        4.72582107
 C           -0.59365963        0.37672244        4.29360503
 C            0.16642370       -2.91654395        3.59985885
 C           -0.96788441       -2.01575663        3.76035505
 C            0.40600117       -3.41019194        2.32894606
 C            2.21196521       -1.76168661        2.09409587
 C            1.54216404       -2.87134209        1.58872748
 C            2.63055753        0.63000725        1.84141047
 C            2.39162534       -0.63146047        1.27137328
 C            2.35646803        1.75406112        1.06828837
 C            0.70382540        2.27245805        2.66575822
 C            1.45944938        2.69149550        1.59474832
 C           -1.08944211        0.69539876        3.02736256
 C           -0.59104302        1.82470781        2.36859028
 C           -1.66125319       -1.63484017        2.61711545
 C           -1.76856237       -0.27322883        2.28308898
 C           -0.70202765       -3.44396015        1.39656817
 C           -1.77375299       -2.58016395        1.60350902
 C            1.20894434       -2.92938380        0.18146969
 C           -0.11417955       -3.51450119        0.07423039
 C            2.11933267       -0.71451200       -0.11065346
 C            1.52374468       -1.86268801       -0.64792882
 C            2.49901713        1.66304871       -0.31117938
 C            2.25711433        0.42416587       -0.92028416
 C            2.37356527        2.84171424       -1.03983885
 C            0.83036674        3.56133856        0.73319494
 C            1.48113147        3.85323678       -0.51816283
 C           -1.14092616        2.19209702        1.12874586
 C           -0.56711996        3.27818271        0.46400387
 C           -2.30384244        0.07842680        1.03971552
 C           -1.85963014        1.23978667        0.39323265
 C           -2.58968414       -2.28696769        0.52451761
 C           -2.96712057       -0.90228484        0.31423941
 C           -0.89499890       -3.15245351       -1.00950623
 C           -2.22585026       -2.81726215       -0.77470011
 C            0.87959447       -1.78913360       -1.88325693
 C           -0.26344216       -2.57559704       -2.10496811
 C            1.91091843        0.35297866       -2.28123281
 C            1.21425641       -0.75880618       -2.76203059
 C            2.15562081        2.78528866       -2.46394924
 C            1.98137422        1.49084537       -3.08469844
 C            0.43596073        4.05497056       -1.49642731
 C           -0.77196743        3.44663597       -0.96146139
 C            0.95516402        3.56563179       -2.75263186
 C           -2.01223617        1.37911607       -1.00311877
 C           -1.39390857        2.43643686       -1.68472728
 C           -3.18572241       -0.72497476       -1.10769735
 C           -2.92118036       -2.00615709       -1.75427766
 C           -2.76507831        0.44760828       -1.72800842
 C           -1.03745757       -2.36631722       -3.23943386
 C           -2.43290237       -1.99503944       -3.05044264
 C            0.63533235       -0.71299048       -4.03332785
 C           -0.50177299       -1.56581837       -4.31640524
 C            0.96539422        1.69020920       -4.09900316
 C            0.10257729        2.71975705       -3.55367905
 C           -1.14478101        2.33628293       -3.05985654
 C            0.35151012        0.57742055       -4.63901412
 C           -2.72533947        0.46859854       -3.12204297
 C           -2.65582972       -0.79890135       -3.83121456
 C           -1.58043134       -0.72044475       -4.80041318
 C           -1.84176423        1.39563188       -3.80304367
 C           -1.08981496        0.64046114       -4.79438398
