   70
C70 / DATE: 7/ 1/2024 / Origin: Program Fullerene / C70 from database
 C            1.54936023       -0.29883047        5.13227186
 C            0.69531372       -1.46410151        5.01259880
 C            1.24956119       -2.30958692        3.97121757
 C            2.59525755       -0.40772920        4.12779698
 C            2.36446616       -1.61100675        3.36254274
 C            2.64168931        0.84546885        3.41385041
 C            0.75172147        0.86658170        4.79555940
 C            1.53419705        1.66967162        3.88229000
 C           -0.60672876       -1.01502324        4.54909644
 C           -0.54573716        0.41525168        4.33854041
 C            0.15528065       -2.69953204        3.10433408
 C           -0.97639084       -1.84661504        3.42621420
 C            0.42621373       -2.89923771        1.75529532
 C            2.39489694       -1.54549341        1.97303292
 C            1.67217780       -2.50517709        1.26598733
 C            2.90784951        0.84022342        2.04711496
 C            2.75627848       -0.35337127        1.32039650
 C            2.70889561        2.04844140        1.39276054
 C            0.86663913        2.42892513        2.92896058
 C            1.65262842        2.91349976        1.89153665
 C           -1.02426495        0.93542731        3.13939781
 C           -0.47761661        2.13003115        2.66341767
 C           -1.65840354       -1.27378192        2.36080507
 C           -1.75768401        0.11857142        2.26419000
 C           -0.65251088       -2.85824338        0.87824580
 C           -1.71756488       -2.00811195        1.18817127
 C           -0.44006735       -3.22113253       -0.45106297
 C            1.91228449       -2.62701429       -0.09403373
 C            0.85234895       -3.12728398       -0.95653610
 C            2.72169394       -0.31962367       -0.08399478
 C            2.54255095       -1.51252565       -0.77607222
 C            2.65500495        2.08424844       -0.05161887
 C            2.54506749        0.89256692       -0.75852953
 C            1.02726888        3.55815727        0.75519300
 C            1.81373000        3.21028170       -0.41692344
 C           -1.12704982        2.77568061        1.61723648
 C           -0.35764925        3.57176769        0.67469181
 C           -2.28518146        0.67703923        1.08987733
 C           -2.12769507        2.04187321        0.86178545
 C           -2.51692433       -1.53868476        0.16228412
 C           -2.66478243       -0.15475549        0.02591199
 C           -1.51292694       -3.15726429       -1.33427306
 C           -2.66043717       -2.36128597       -0.94362974
 C           -1.26540090       -2.88168196       -2.74029820
 C            1.06462662       -2.55866748       -2.27707319
 C            2.03982124       -1.48696371       -2.13736072
 C           -0.02121799       -2.37766836       -3.12849721
 C            2.02252889        0.91866535       -2.05995360
 C            1.79645597       -0.27059506       -2.76096174
 C            1.21343007        3.20358700       -1.66351438
 C            1.53462441        2.12059276       -2.57320378
 C           -0.99995947        3.47042833       -0.62442057
 C           -2.11215597        2.54216334       -0.50234158
 C           -0.22013536        3.43851775       -1.77226490
 C           -2.89713266        0.40228239       -1.24072755
 C           -2.38873121        1.66624510       -1.54543391
 C           -3.27117301       -1.83420602       -2.14251940
 C           -2.49658766       -2.31807887       -3.27327935
 C           -3.38342678       -0.39872608       -2.26957506
 C           -2.42628607       -1.24540983       -4.24059920
 C           -3.03373748       -0.06651433       -3.63606058
 C            0.06895152       -1.38463092       -4.10578284
 C            0.98262989       -0.27030562       -3.89625517
 C           -1.12660466       -0.86229741       -4.74753486
 C            0.47595713        2.09421537       -3.55854303
 C           -0.69086508        2.68125185       -2.91829308
 C           -1.85191677        1.91872353       -2.81438549
 C           -2.14824789        1.05733789       -3.86714204
 C            0.30291772        0.94788551       -4.31380843
 C           -1.05112560        0.58555349       -4.69610115
