   70
C70 / DATE: 7/ 1/2024 / Origin: Program Fullerene / C70 from database
 C            1.60948812       -0.03885419        4.58635881
 C            0.78100282       -1.20943451        4.36735117
 C            1.32729130       -1.95197114        3.24409834
 C            2.65450634       -0.04303454        3.57890083
 C            2.50277737       -1.23483909        2.77917695
 C            2.62186701        1.23016349        2.89797860
 C            0.78034775        1.13117542        4.35416529
 C            1.44764112        1.95280409        3.36947135
 C           -0.59287618       -0.76134812        4.28234565
 C           -0.56207642        0.67694055        4.06173105
 C           -1.46375573       -1.51564125        3.51866115
 C            0.44343006       -2.48768634        2.30109841
 C           -0.91301475       -2.51741597        2.61257559
 C            0.84901047       -2.58161705        0.96183118
 C            2.70199858       -1.14852394        1.41374151
 C            2.12853154       -2.13496007        0.62981383
 C            2.91262262        1.27486287        1.53584423
 C            3.02618526        0.07737152        0.81388933
 C            2.54076197        2.42929722        0.85922953
 C            0.68488742        2.63160630        2.42718971
 C            1.37766625        3.15580502        1.34082323
 C           -1.22214198        1.20969178        2.95390333
 C           -0.67323489        2.30911080        2.28019729
 C           -2.49591367       -0.82601545        2.77516960
 C           -2.28256528        0.49384323        2.38246784
 C           -1.88510442       -2.70921340        1.55542818
 C           -2.98074016       -1.77968840        1.80339600
 C           -0.09455720       -2.79760233       -0.05838149
 C           -1.45362322       -2.91717096        0.24956830
 C            0.32417932       -2.82893973       -1.39801993
 C            2.58411711       -2.25915102       -0.66771253
 C            1.69135186       -2.79287324       -1.67158243
 C            3.14122598        0.11290291       -0.58212148
 C            3.24843863       -1.10720464       -1.24745806
 C            2.50017329        2.43389461       -0.58934298
 C            2.71095075        1.24807597       -1.28450618
 C            0.65670333        3.66664061        0.19171643
 C            1.42263510        3.32160855       -0.99527631
 C           -1.41172317        2.91048288        1.26618315
 C           -0.72725705        3.58180458        0.17219476
 C           -2.93837826        0.98539789        1.24759328
 C           -2.55508748        2.21012305        0.71120352
 C           -3.70827613       -1.30766829        0.72673597
 C           -3.68545011        0.12006774        0.44323282
 C           -2.39248025       -2.80631774       -0.76876285
 C           -3.58423872       -2.00809413       -0.53628196
 C           -0.60273193       -2.62754184       -2.43283468
 C           -1.94982188       -2.52745812       -2.11708076
 C           -0.20294492       -1.98657778       -3.60363652
 C            2.16910552       -2.29685291       -2.94961063
 C            3.04494234       -1.16564147       -2.67841426
 C            1.20018349       -1.87652821       -3.93391429
 C            2.24099916        1.14215272       -2.60107392
 C            2.48990411       -0.00775115       -3.34212537
 C            1.46582974       -0.48391142       -4.25652039
 C            0.76636484        3.07556921       -2.19118709
 C            1.26200228        2.02416656       -3.05950322
 C           -1.41523756        3.24781444       -1.06533033
 C           -2.51574596        2.36233130       -0.73568939
 C           -0.68872571        3.02070082       -2.22402072
 C           -3.63871812        0.28666210       -1.00276735
 C           -3.67568532       -1.02586050       -1.60219924
 C           -2.67284024       -1.35370333       -2.58565101
 C           -2.79928893        1.25822715       -1.53663963
 C           -0.84857569       -0.73212850       -3.95161388
 C            0.19195350        0.21741318       -4.30670133
 C            0.12484898        1.50393986       -3.80090984
 C           -1.07146779        1.92006215       -3.09267083
 C           -1.94551739       -0.33331671       -3.18852422
 C           -1.97612881        0.95982690       -2.63720113
