   70
C70 / DATE: 7/ 1/2024 / Origin: Program Fullerene / C70 from database
 C            1.06139776        0.07856101        4.62884338
 C            2.27610238       -0.24660879        3.91992902
 C            2.25398278       -1.67758763        3.67578175
 C            0.25896877       -1.13771019        4.70940575
 C            0.87801119       -2.10424697        3.83076328
 C           -1.11527953       -0.76704225        4.46308446
 C            0.20229975        1.11056670        4.09060998
 C           -1.14356737        0.68072196        4.38275824
 C            0.45452045        1.65421767        2.82661254
 C            2.52505687        0.39170238        2.64401138
 C            1.56383995        1.22973965        2.07954832
 C            2.88972140       -1.90873643        2.39607700
 C            3.15764964       -0.60500111        1.80237811
 C            2.35320183       -2.89309264        1.57942451
 C            0.19689311       -2.56292285        2.70060943
 C            0.94318193       -3.23176779        1.73654388
 C           -1.76484021       -1.26426465        3.26352359
 C           -1.02327679       -1.97766453        2.32929265
 C           -2.15785785        1.02603220        3.42411675
 C           -2.63013329       -0.19968693        2.79960500
 C           -0.58814177        2.31640272        2.16783915
 C           -1.91757521        2.08756216        2.57449374
 C           -0.34450985        2.86456442        0.90235338
 C            1.58238096        1.43089426        0.69647253
 C            0.68597813        2.32738531        0.11530215
 C            3.05213905       -0.47648035        0.42309927
 C            2.41990536        0.65262756       -0.11116004
 C            2.61479069       -2.80970051        0.15829785
 C            3.14076085       -1.63123204       -0.35421725
 C            0.38589995       -3.43219469        0.41214769
 C            1.49109453       -3.41652143       -0.53214531
 C           -1.40138137       -1.93038716        0.98160626
 C           -0.80139357       -2.80248833        0.06755552
 C           -2.97869873       -0.12945346        1.45042804
 C           -2.33052624       -0.97284008        0.53651859
 C           -2.92080816        2.29748322        1.64891150
 C           -3.44948857        1.10742067        0.99909617
 C           -1.34853713        3.63021085        0.31511205
 C           -2.71629124        3.30498060        0.64193311
 C           -1.32265503        3.87923399       -1.10587321
 C            0.75849571        2.58224818       -1.26329195
 C           -0.22480246        3.35297556       -1.88490749
 C            2.41022531        0.82302465       -1.49662577
 C            1.56547180        1.77826925       -2.07704685
 C            3.15075149       -1.49185269       -1.73035046
 C            3.01347865       -0.16220047       -2.28199414
 C            1.25491589       -3.03884752       -1.85094971
 C            2.27387938       -2.35253846       -2.51050962
 C           -1.12267378       -2.71997571       -1.28190942
 C           -0.06819265       -2.88400997       -2.27332905
 C           -2.47498592       -0.73633040       -0.83470953
 C           -2.01183256       -1.67206209       -1.74231770
 C           -3.49544239        1.38626049       -0.42429627
 C           -3.34167583        2.82048738       -0.57213977
 C           -2.54701005        3.31541883       -1.66835138
 C           -2.82750086        0.53113379       -1.29256398
 C           -0.82641635        2.84768275       -3.10318203
 C           -2.13099336        2.38361059       -2.69347795
 C           -2.30814285        1.01011812       -2.50693339
 C            1.28333686        1.73350437       -3.44838697
 C           -0.07026219        1.99982123       -3.88012310
 C            2.61531274       -0.34777841       -3.66167009
 C            2.00042989       -1.66374741       -3.75777631
 C            1.70888106        0.60381026       -4.24726213
 C           -0.39259895       -2.02771152       -3.40728155
 C           -1.54725751       -1.21708654       -3.04003645
 C           -1.57868276        0.14672525       -3.33221345
 C           -0.62449023        0.69457524       -4.19394381
 C            0.62499063       -1.47741951       -4.17369941
 C            0.49997585       -0.11078178       -4.63941047
