   70
C70 / DATE: 7/ 1/2024 / Origin: Program Fullerene / C70 from database
 C            1.66856871        0.03968549        4.57453375
 C            0.85923306       -1.16185730        4.49024508
 C            1.44887144       -2.02944907        3.48743577
 C            2.68224419       -0.03639037        3.53744518
 C            2.58982626       -1.33346232        2.90778133
 C            2.54744737        1.12872418        2.69757597
 C            0.81062783        1.17074348        4.26903015
 C            1.38776452        1.88017198        3.14336134
 C           -0.52268326       -0.75989400        4.33014074
 C           -0.54947126        0.68382362        4.14224484
 C           -1.34833249       -1.54907773        3.54476772
 C            0.61941672       -2.76412622        2.64193565
 C           -0.76878863       -2.61017738        2.72861471
 C            1.17181868       -3.25502352        1.46212954
 C            2.79658692       -1.43505025        1.53474476
 C            2.34920576       -2.59466608        0.91876085
 C            2.73045886        0.99249298        1.33207217
 C            2.94251500       -0.27277895        0.76345719
 C            2.23172016        2.00295783        0.52450845
 C            0.52921272        2.39725224        2.17547465
 C            1.01761372        2.59726736        0.87862065
 C           -1.34993154        1.22114525        3.13782151
 C           -0.84693871        2.28063175        2.37017655
 C           -2.39098084       -0.91221752        2.76022965
 C           -2.43334237        0.47377893        2.66259339
 C           -1.59037218       -2.74164914        1.53099926
 C           -2.59807979       -1.69999991        1.55590421
 C            0.30572040       -3.57062636        0.34182330
 C           -0.99224649       -3.07072271        0.32634443
 C            2.26615051       -2.65602501       -0.52847888
 C            1.11863457       -3.48433884       -0.85783360
 C            3.01040872       -0.36749991       -0.63380305
 C            2.51917534       -1.51224507       -1.27942619
 C            2.66717619        2.04302905       -0.78725214
 C            3.18311070        0.81226856       -1.35548087
 C            1.83969276        2.68111942       -1.78794082
 C            0.15772324        3.08503199       -0.11409986
 C            0.53470687        3.02908147       -1.45980915
 C           -1.69396628        2.94315808        1.49440955
 C           -1.16223282        3.39120121        0.21769267
 C           -3.24751219        1.01755125        1.67729780
 C           -3.00576107        2.38046979        1.25387029
 C           -2.94192433       -1.04211270        0.37733392
 C           -3.51815728        0.22146579        0.48703537
 C           -1.51518067       -2.56146806       -0.86212384
 C           -2.34540675       -1.42832144       -0.83027589
 C            0.48437960       -3.28262016       -2.06986303
 C           -0.93410395       -2.97240622       -2.05797456
 C            2.02903811       -1.44476409       -2.59266732
 C            1.09606990       -2.38446239       -3.02901210
 C            2.90307312        0.83359601       -2.77474027
 C            2.10863305        2.02031673       -3.05438307
 C            2.22782137       -0.30126411       -3.36044468
 C            0.99237215        1.62569950       -3.89434105
 C            1.13839578        0.20749909       -4.18301899
 C           -0.44463353        2.99944882       -2.45285466
 C           -0.26546179        2.14781817       -3.62101017
 C           -2.20832737        3.23069520       -0.78029704
 C           -3.27429002        2.45982464       -0.16894094
 C           -3.52018576        1.11306657       -0.65591557
 C           -1.84280445        2.91415411       -2.07821935
 C           -2.49143968       -0.61645947       -1.96801043
 C           -1.44493465        1.29981812       -3.73000489
 C           -2.90198181        0.70939414       -1.83051412
 C           -2.35589093        1.68579937       -2.66450331
 C           -1.22777071       -2.25674594       -3.28008413
 C            0.04020231       -1.96253220       -3.93200706
 C            0.00745314       -0.57912659       -4.37193528
 C           -1.97513623       -1.02375250       -3.19482910
 C           -1.30479990       -0.04686866       -4.03631698
