   70
C70 / DATE: 7/ 1/2024 / Origin: Program Fullerene / C70 from database
 C            1.46548558        0.00294131        4.65278975
 C            0.69306713       -1.19354416        4.38702256
 C            1.33643846       -1.92425762        3.30852619
 C            2.60205873        0.00150193        3.75062671
 C            2.51185076       -1.16654374        2.90890066
 C            2.63697808        1.28629086        3.10031777
 C            0.63092990        1.14259608        4.30534510
 C            1.37289438        1.95399092        3.37737214
 C           -0.67984367       -0.78098197        4.19697057
 C           -0.65488997        0.64004653        3.88318065
 C           -1.48101149       -1.58997795        3.41838120
 C            0.53010575       -2.49701991        2.32098292
 C           -0.84434597       -2.57607492        2.55123477
 C            1.00723628       -2.56581425        1.00685546
 C            2.77002345       -1.03045378        1.55425977
 C            2.24660699       -1.99002430        0.70434498
 C            3.11909863        1.37141907        1.80034746
 C            3.19673243        0.19899088        1.02062109
 C            2.85172781        2.57382647        1.16460445
 C            0.71180425        2.54175126        2.30525946
 C            1.53985502        3.16236267        1.38310433
 C           -1.20420057        1.07778599        2.67251092
 C           -0.50794908        1.99236509        1.86345594
 C           -2.48803466       -0.95169703        2.60553794
 C           -2.25314008        0.33892362        2.12744043
 C           -1.74989768       -2.79541803        1.43264130
 C           -2.92116276       -1.96978942        1.67655635
 C            0.14678635       -2.96319289       -0.02613203
 C           -1.23235714       -2.87070146        0.14301903
 C            0.64645263       -3.15758508       -1.30517451
 C            2.75659865       -2.06144313       -0.57761857
 C            2.01056160       -2.76711667       -1.59634702
 C            3.43842312        0.28777183       -0.36645063
 C            3.28797262       -0.84759022       -1.16477007
 C            3.18578386        2.72316037       -0.22796629
 C            3.40064361        1.52652502       -1.00620804
 C            1.01566061        3.55045316        0.09941437
 C            2.11296462        3.47502020       -0.85195232
 C           -0.96031693        2.24066272        0.55226177
 C           -0.23470423        3.09607670       -0.29181162
 C           -2.81124580        0.70764098        0.90480907
 C           -2.11503494        1.59486270        0.07023494
 C           -3.66910924       -1.56119705        0.59472500
 C           -3.78942556       -0.13317819        0.37107140
 C           -2.05646824       -2.56073712       -0.94891712
 C           -3.36230171       -2.12922886       -0.70005435
 C           -0.16922054       -2.76572981       -2.43716612
 C           -1.51049337       -2.45438553       -2.23895728
 C            1.99414922       -1.93640481       -2.78904064
 C            2.67746528       -0.70217678       -2.47877686
 C            0.63098274       -1.86868288       -3.25837454
 C            2.63814180        1.66088248       -2.24020450
 C            1.85743161        2.88576054       -2.15161526
 C            2.08979263        0.51307518       -2.81388805
 C           -0.51817964        3.12373620       -1.65074397
 C            0.55327912        2.87266812       -2.60593779
 C           -2.53798234        1.80355598       -1.25689796
 C           -1.69535504        2.45630442       -2.14572222
 C           -4.20452046        0.02384164       -1.00255002
 C           -4.03435011       -1.27078133       -1.65317183
 C           -3.53551528        1.00826710       -1.81392069
 C           -2.10808777       -1.61996678       -3.18469140
 C           -3.41201268       -1.04225404       -2.93525646
 C           -3.28785519        0.39376180       -3.10708102
 C            0.08869864       -0.64152647       -3.62666235
 C            0.78864707        0.54661479       -3.34817445
 C            0.11999567        1.76774500       -3.43260910
 C           -1.32577290        1.79224206       -3.38917765
 C           -1.29177338       -0.60473301       -3.83198484
 C           -2.01676667        0.65478751       -3.75871894
