   70
C70 / DATE: 7/ 1/2024 / Origin: Program Fullerene / C70 from database
 C            1.32980652       -0.05416864        4.23207843
 C            2.51285883       -0.34019674        3.43847074
 C            2.45566293       -1.74940068        3.06941721
 C            0.49504267       -1.24383668        4.21875719
 C            1.09124953       -2.18514290        3.28909053
 C           -0.87477294       -0.82965755        3.99134375
 C            0.49776640        1.07671726        3.87321840
 C           -0.86430087        0.59612756        3.70302868
 C            0.99608512        2.02061309        2.99201300
 C            2.96728200        0.59615154        2.50743976
 C            2.28084480        1.79973564        2.33916177
 C            3.84841389        0.17872623        1.51246501
 C            3.10515834       -2.16313797        1.91972531
 C            4.04539247       -1.24592300        1.30957733
 C            2.31018928       -2.74745223        0.84906890
 C            0.33171930       -2.63703924        2.21062669
 C            0.92026499       -2.73408443        0.94632465
 C           -1.68207001       -1.64755711        3.21705937
 C           -1.05350580       -2.61182651        2.31973108
 C           -2.77556870       -1.04275348        2.48400771
 C           -1.65486441        1.07992647        2.65852037
 C           -2.76785935        0.33374363        2.25907347
 C            0.10285172        2.61972011        2.01908837
 C           -1.17661273        2.10580874        1.83177675
 C            2.21553311        2.40970240        1.01889819
 C            0.88784983        2.97179167        0.85132335
 C            3.79739130        0.80694054        0.19929004
 C            2.82973310        1.77917583       -0.05722220
 C            4.04356284       -1.49934623       -0.11694569
 C            2.94138027       -2.39990669       -0.41040522
 C            4.08274510       -0.21799031       -0.79515301
 C            2.14565614       -2.12762154       -1.51518199
 C            0.14737407       -2.54407770       -0.20832837
 C            0.77539727       -2.38551006       -1.45078401
 C           -1.86267532       -2.68488012        1.11758260
 C           -3.07923329       -1.93924197        1.38253454
 C           -1.25224459       -2.56641101       -0.12641994
 C           -3.80531502       -1.44466521        0.31274993
 C           -3.61440399        0.84762095        1.28253397
 C           -4.29653391       -0.08153160        0.39663854
 C           -1.84103799        2.39968655        0.64122028
 C           -3.15069426        1.95968658        0.47547828
 C            0.28297592        2.91252635       -0.39485259
 C           -1.11106461        2.85301732       -0.46283293
 C            2.26191408        1.88152298       -1.33138893
 C            1.05071028        2.56032716       -1.50738782
 C            3.47276488       -0.12802384       -2.03389500
 C            2.62736109       -1.22851201       -2.46764869
 C            2.75122664        1.08196656       -2.36329915
 C            1.72951995       -0.70024665       -3.48143229
 C            1.88541265        0.74888085       -3.48113901
 C            0.00410198       -2.18635882       -2.59097396
 C            0.46476882       -1.25636746       -3.60892322
 C           -2.03139317       -2.20219723       -1.22891953
 C           -3.29212448       -1.64022913       -1.03365089
 C           -1.43066627       -2.03392642       -2.46735515
 C           -4.28749596        0.48178063       -0.94085828
 C           -3.70326180        1.80525826       -0.86264754
 C           -3.68278556       -0.48945358       -1.83519531
 C           -1.73997371        2.98614860       -1.69606636
 C           -2.96723356        2.25612906       -1.94547819
 C            0.47507201        2.60534036       -2.77601695
 C            0.78787913        1.55755357       -3.73033027
 C           -0.94085659        2.89355155       -2.90210502
 C           -0.65785540       -0.41310825       -3.98851078
 C           -1.84070961       -0.91470738       -3.30323372
 C           -2.82221952       -0.04012744       -2.83431308
 C           -2.68939459        1.33581138       -3.03936692
 C           -0.47090198        0.95486217       -4.13870658
 C           -1.53128927        1.86006621       -3.74234560
