   70
C70 / DATE: 7/ 1/2024 / Origin: Program Fullerene / C70 from database
 C            1.55148902       -0.00440455        4.77459380
 C            0.75311728       -1.19399548        4.54773397
 C            1.41333388       -1.99321895        3.53284075
 C            2.67142486       -0.03976260        3.85009399
 C            2.58250989       -1.25238385        3.07559733
 C            2.68429974        1.20794807        3.13395980
 C            0.73220359        1.14552666        4.42886253
 C            1.46060407        1.92599836        3.45892968
 C           -0.60826245       -0.77014413        4.30426351
 C           -0.57973388        0.66506171        4.06433331
 C           -1.39147494       -1.55467531        3.47393368
 C            0.63863058       -2.66796683        2.58959134
 C           -0.75543139       -2.58102217        2.65305969
 C            1.24178621       -3.02358934        1.38750888
 C            2.85003532       -1.20951496        1.70993753
 C            2.43249649       -2.30242169        0.96471187
 C            3.09070433        1.22348831        1.80751539
 C            3.07386288        0.02290175        1.06449317
 C            2.84402704        2.41742903        1.14815510
 C            0.77188231        2.53072777        2.41084332
 C            1.56480247        3.06150519        1.39624003
 C           -1.19485670        1.16436546        2.91812232
 C           -0.52574094        2.09039833        2.09491859
 C           -2.38486317       -0.90250161        2.64261542
 C           -2.29492480        0.46888041        2.41573109
 C           -1.55072039       -2.72311876        1.43767046
 C           -2.65300120       -1.78339495        1.52014193
 C            0.42748568       -3.26291841        0.20608819
 C           -0.91812413       -2.91827978        0.21449726
 C            2.41905333       -2.22963799       -0.47679282
 C            1.23714298       -2.93547750       -0.94965358
 C            3.13243207        0.07030248       -0.34526931
 C            2.79970428       -1.05607395       -1.11019258
 C            3.13307982        2.51729163       -0.25744054
 C            3.32253383        1.29149070       -0.99510422
 C            0.97863396        3.35992483        0.10541039
 C            2.03187803        3.23615903       -0.87911361
 C           -1.09353767        2.44419295        0.86346422
 C           -0.27724831        2.85393816       -0.18777831
 C           -3.00070902        1.00131281        1.34714262
 C           -2.40581289        2.08666799        0.59311192
 C           -3.14841337       -1.22989792        0.35008256
 C           -3.59403525        0.08825776        0.38631205
 C           -1.51202205       -2.42962635       -0.95458804
 C           -2.74593380       -1.76557887       -0.87081445
 C            0.61693206       -2.49219959       -2.10804976
 C           -0.77628190       -2.41853447       -2.15066930
 C            2.45825382       -0.91303272       -2.45572215
 C            1.36507072       -1.71516645       -2.98721317
 C            2.71476151        1.50936652       -2.29363018
 C            1.73245266        2.56577056       -2.12453628
 C            2.36279229        0.40856029       -3.05274173
 C           -0.60354925        2.50718785       -1.50622197
 C            0.40906446        2.29528658       -2.45356961
 C           -2.83817406        1.95505729       -0.78988005
 C           -3.74713705        0.81708166       -0.85783484
 C           -1.92311655        2.16854489       -1.82180289
 C           -3.35811811       -1.28487830       -2.02424660
 C           -3.82273758        0.09525758       -2.03848007
 C           -1.38555314       -2.02753332       -3.34064743
 C           -2.75797687       -1.56614033       -3.31042926
 C            0.68951510       -0.92527124       -4.00111834
 C            1.12148440        0.45050879       -3.81130201
 C            0.17251256        1.43225281       -3.51932460
 C           -0.65090400       -1.16858767       -4.25784137
 C           -2.21870652        1.67689911       -3.09367547
 C           -3.29577922        0.71142743       -3.23733278
 C           -2.84058357       -0.35507552       -4.10941505
 C           -1.13190254        1.25498543       -3.95934833
 C           -1.49662678       -0.02593060       -4.54072699
