   70
C70 / DATE: 7/ 1/2024 / Origin: Program Fullerene / C70 from database
 C            1.62939764        0.02980414        4.47137835
 C            0.80924628       -1.16130720        4.38225469
 C            1.33796559       -1.99977136        3.31879568
 C            2.62713926       -0.04288079        3.41928615
 C            2.43292652       -1.28221036        2.69215258
 C            2.56928150        1.19678719        2.66973233
 C            0.77463945        1.16846256        4.18507204
 C            1.39982652        1.92570624        3.12632758
 C           -0.57550100       -0.73824514        4.29399000
 C           -0.57069751        0.67984334        3.96727110
 C           -1.45348467       -1.56744931        3.61700793
 C            0.43723781       -2.68063915        2.50913463
 C           -0.90765937       -2.69513778        2.88022808
 C            0.77394514       -2.92823891        1.17693331
 C            2.50209607       -1.23913121        1.30531947
 C            1.74132683       -2.13534336        0.54843655
 C            2.80212946        1.15228759        1.29703559
 C            3.00954152       -0.09114030        0.69647418
 C            2.30977313        2.19916739        0.51230006
 C            0.60303358        2.50639434        2.15473987
 C            1.24432520        2.95760820        1.01379044
 C           -1.27582606        1.12416805        2.84819824
 C           -0.75499660        2.16595684        2.06132313
 C           -2.46565841       -0.97207058        2.76420368
 C           -2.34552436        0.35861312        2.37634311
 C           -1.90905023       -3.08780504        1.90727410
 C           -2.83725644       -1.96959130        1.77000617
 C           -0.08850487       -3.70123365        0.40627095
 C           -1.49613951       -3.76401535        0.77232459
 C           -0.00515318       -3.64200342       -1.04049676
 C            1.84704125       -2.11460342       -0.84849422
 C            0.90815461       -2.78291527       -1.64018672
 C            3.28665803       -0.13476497       -0.66006664
 C            2.74284303       -1.22808940       -1.44572362
 C            2.60978561        2.21870067       -0.85454523
 C            3.16080772        1.08209735       -1.44331864
 C            2.08576896        3.21983040       -1.66947013
 C            0.52031367        3.78064982        0.17388607
 C            1.01940335        4.05176082       -1.15653491
 C           -1.50661607        2.67027353        0.98776815
 C           -0.90860554        3.55570318        0.08783811
 C           -3.05455352        0.78207574        1.26271832
 C           -2.62948090        1.97167342        0.55436235
 C           -3.25038298       -1.55306748        0.50192401
 C           -3.48595546       -0.19860966        0.27661596
 C           -2.27339592       -3.60106347       -0.43727276
 C           -1.36139362       -3.68546765       -1.56098817
 C           -3.06601141       -2.39489273       -0.59440666
 C           -1.75920045       -2.68393122       -2.53164431
 C           -2.73829045       -1.81758558       -1.89123148
 C            0.61925902       -2.30856633       -2.92105708
 C           -0.76937131       -2.10617065       -3.30542460
 C            2.47922713       -0.72386925       -2.78348096
 C            2.76898655        0.70145409       -2.79256663
 C            1.38244307       -1.20630378       -3.48134961
 C            1.75369597        2.91113976       -3.04971414
 C            1.97189684        1.56122095       -3.53873619
 C           -0.10292076        3.95123284       -2.07539226
 C           -1.22731244        3.43090151       -1.32524761
 C            0.34542669        3.22534772       -3.24032796
 C           -2.80729712        1.73126624       -0.87124360
 C           -3.23560579        0.35913396       -1.04350705
 C           -2.63349918       -0.43110328       -2.01164380
 C           -1.89670036        2.28850830       -1.75764681
 C           -0.89381692       -0.70856544       -3.65809691
 C            0.42832811       -0.27353036       -4.06748546
 C            0.70211971        1.08402003       -4.06601272
 C           -0.32625244        1.98967124       -3.58828497
 C           -1.67566995        0.12944462       -2.86301028
 C           -1.34820603        1.49040900       -2.77410866
