   70
C70 / DATE: 7/ 1/2024 / Origin: Program Fullerene / C70 from database
 C            1.11974007       -0.02121370        4.56891405
 C            2.31380491       -0.32219280        3.81348631
 C            2.17676663       -1.68148234        3.31699325
 C            0.27244532       -1.20362714        4.52697611
 C            0.78996667       -2.05496420        3.47567006
 C           -1.09454018       -0.75035961        4.43699964
 C            0.30126380        1.09773784        4.15196854
 C           -1.07373123        0.70504620        4.37476331
 C            0.60252639        1.78262684        2.97823120
 C            2.64671259        0.51048218        2.67372567
 C            1.78808696        1.52572807        2.27274052
 C            2.73054366       -1.70544291        1.98361838
 C            3.18217050       -0.36819912        1.65734476
 C            2.05655993       -2.39240905        0.98842706
 C            0.03211058       -2.28896998        2.32534811
 C            0.68684890       -2.65835850        1.14474336
 C           -1.90123180       -1.20205010        3.32395076
 C           -1.32038963       -1.92319002        2.27545368
 C           -2.07347798        1.10885603        3.39887770
 C           -2.78146250       -0.09609243        3.00529632
 C           -0.41122898        2.50587894        2.35383502
 C           -1.73066992        2.03247435        2.41216066
 C           -0.04675238        3.40700777        1.36366309
 C            1.93265531        2.03588570        0.98207767
 C            1.17797651        3.14743568        0.62775939
 C            3.10007230        0.01247726        0.32175678
 C            2.51753467        1.24264880       -0.01646254
 C            2.54789837       -2.24025318       -0.29995882
 C            3.11434999       -1.00070124       -0.63457135
 C            1.99429912       -3.04997770       -1.27976619
 C           -0.07101528       -2.99818974        0.01946576
 C            0.59770496       -3.40755790       -1.13830897
 C           -2.00408206       -1.98760070        1.05818554
 C           -1.40454013       -2.58523389       -0.05326884
 C           -3.42200656       -0.11202621        1.78100353
 C           -3.15920116       -1.22076344        0.88390782
 C           -2.56313935        2.14534412        1.29177763
 C           -3.41652896        1.09336010        0.96709071
 C           -1.05012863        3.85257035        0.42233244
 C           -2.26452083        3.07528610        0.30228629
 C            0.92847609        3.42644570       -0.77251000
 C           -0.43112669        3.92815556       -0.88807187
 C            2.32093858        1.55723743       -1.37148787
 C            1.39819806        2.54230033       -1.73475545
 C            3.26978498       -0.62644434       -1.96207649
 C            2.81564227        0.69438467       -2.35371135
 C            2.26254166       -2.78591165       -2.67731127
 C            2.93473925       -1.55421813       -3.02480834
 C           -0.02803333       -3.24750360       -2.44179618
 C            0.99180925       -2.81783974       -3.38086507
 C           -2.04228337       -2.50097509       -1.29269571
 C           -1.27859885       -2.66317333       -2.51280239
 C           -3.52882245       -0.77346330       -0.44545506
 C           -3.52787462        0.67999466       -0.42434325
 C           -2.99129379       -1.43081351       -1.53357414
 C           -2.41016270        2.68786649       -1.09448278
 C           -1.32529946        3.30020407       -1.84378800
 C           -2.83175682        1.39291373       -1.39936894
 C            0.67393870        2.40539489       -2.91897260
 C           -0.76512015        2.60573643       -2.90182477
 C            2.10003615        0.55723889       -3.61413611
 C            2.09933345       -0.84632442       -3.97838697
 C            0.82744331       -1.54356354       -4.05844528
 C            0.93473331        1.28120727       -3.79466029
 C           -1.45871016       -1.45077978       -3.30367222
 C           -2.48397509       -0.65092323       -2.64805966
 C           -2.29928511        0.72247875       -2.50787183
 C           -1.36873701        1.35610158       -3.32630390
 C           -0.35411566       -0.82409072       -3.88202586
 C           -0.32581044        0.56837351       -3.97023071
