   70
C70 / DATE: 7/ 1/2024 / Origin: Program Fullerene / C70 from database
 C            1.31008958       -0.15673538        4.41721985
 C            2.56382312       -0.45383201        3.76767349
 C            2.52481157       -1.83649948        3.32014674
 C            0.47464189       -1.34778808        4.34728486
 C            1.21742410       -2.37907866        3.64672442
 C           -0.82018033       -0.93933231        3.82891139
 C            0.51917055        0.95603148        3.92505107
 C           -0.86115979        0.50723230        3.91972428
 C            0.97965108        1.73718687        2.85905859
 C            2.96321195        0.35972399        2.64032164
 C            2.25794013        1.51684410        2.31858049
 C            2.97819484       -1.87307601        1.93692023
 C            3.36322309       -0.52775373        1.55985811
 C            2.29058316       -2.65003407        1.01724508
 C            0.56118813       -3.14241404        2.69184292
 C            1.25675175       -3.47372824        1.46281696
 C           -1.33057511       -1.56864661        2.69298462
 C           -0.80214826       -2.79623615        2.31116063
 C           -2.10952384       -0.83766953        1.79038027
 C           -1.76301630        1.18995510        3.12881791
 C           -2.53036403        0.44190473        2.14784087
 C            0.05184149        2.53503387        2.17331619
 C           -1.30718489        2.38718267        2.45484216
 C            0.44016547        3.27887306        1.05487153
 C            2.59639767        2.12059399        1.11603877
 C            1.71805607        3.11206889        0.53403898
 C            3.17304635       -0.09769962        0.24819393
 C            3.09122384        1.27708837        0.03630283
 C            2.34367179       -2.30405537       -0.33133972
 C            2.61137432       -0.97330233       -0.69310092
 C            1.73849868       -3.16413405       -1.24245908
 C            0.23610939       -3.89559238        0.52234561
 C           -1.00414680       -3.27091567        0.95371035
 C            0.54292758       -3.87767494       -0.82673857
 C           -2.21641246       -1.24567987        0.45430330
 C           -1.71068694       -2.48728231        0.04728827
 C           -2.83825348       -0.40980372       -0.47876051
 C           -2.92316226        1.38402125        1.11229859
 C           -2.28064341        2.65281549        1.41686581
 C           -2.98463589        0.95359117       -0.20713261
 C           -0.53052188        3.90357311        0.26973542
 C           -1.91808453        3.48237821        0.37355468
 C           -0.25527619        4.14567721       -1.13762547
 C            1.90981756        3.05616818       -0.90806383
 C            2.53564853        1.78200007       -1.20316246
 C            0.90342327        3.51530861       -1.74068366
 C            2.15630766       -0.46758506       -1.92189929
 C            1.91000834        0.89432998       -2.06502951
 C            1.53106373       -2.72733234       -2.60685127
 C            1.70602446       -1.32646053       -2.91354040
 C           -0.50013837       -3.51348975       -1.76562491
 C           -1.59918147       -2.78058240       -1.31526027
 C            0.17415891       -3.09221094       -2.97792749
 C           -3.07409678       -0.88160998       -1.76375781
 C           -2.33262140       -2.03549274       -2.23442213
 C           -3.13874901        0.06852171       -2.85366912
 C           -2.88714620        1.89537515       -1.24013504
 C           -2.37706977        3.16298602       -0.96578841
 C           -1.42692336        3.74374449       -1.89673192
 C           -2.88071550        1.46488411       -2.56426554
 C            0.43069158        2.65618811       -2.81634693
 C            0.88383731        1.33783282       -2.90843978
 C           -0.98155872        2.93642866       -3.01790875
 C           -1.80123906        1.90175152       -3.44094683
 C            0.58357542       -0.90929571       -3.73417906
 C           -0.39403782       -1.99279871       -3.72877600
 C           -1.72849336       -1.68279211       -3.51550406
 C           -2.17813615       -0.35106070       -3.85989457
 C            0.14271092        0.41205991       -3.65180312
 C           -1.18520195        0.70032036       -3.97050178
