   70
C70 / DATE: 7/ 1/2024 / Origin: Program Fullerene / C70 from database
 C            1.52735327       -0.14756102        5.60444932
 C            0.64107595       -1.29123293        5.73078934
 C            1.24400640       -2.39007031        5.00280393
 C            2.57644597       -0.49057008        4.65663424
 C            2.41281818       -1.87837037        4.30022232
 C            2.55189645        0.49626555        3.59145063
 C            0.76048962        0.93455527        5.01955368
 C            1.53723765        1.48087119        3.92071274
 C           -0.61372545       -0.95914252        5.07123522
 C           -0.56963400        0.44127125        4.71051575
 C            0.29098418       -2.82148215        3.99655831
 C           -0.84711281       -1.92484728        4.01413274
 C            2.25573697       -2.20520217        2.89719311
 C            1.01314606       -2.94003338        2.75346153
 C            2.65917501        0.09696269        2.25725139
 C            2.55724180       -1.25860081        1.91168180
 C            2.33933569        1.04135521        1.28244250
 C            0.83818484        2.04578289        2.86190511
 C            1.45973282        2.07997604        1.61561917
 C           -1.10735458        0.82669233        3.49070450
 C           -0.55045044        1.94529514        2.88297057
 C           -1.32913728       -1.46753809        2.78664093
 C           -1.71044085       -0.13203711        2.66418997
 C            0.31941186       -2.72876296        1.57784457
 C           -0.94872633       -2.14492475        1.62859464
 C            2.15091466       -1.56599813        0.60861267
 C            1.08284063       -2.44966669        0.46226211
 C            2.50745988        0.70079325       -0.05730497
 C            2.38589678       -0.64226302       -0.41717751
 C            2.29478737        1.68890975       -1.00677488
 C            0.83399467        2.79895203        0.59572865
 C            1.37989819        2.76558973       -0.68158498
 C           -1.25454468        2.49804241        1.83166996
 C           -0.51161231        3.11427227        0.74643873
 C           -2.23655310        0.30222507        1.44208791
 C           -2.27609799        1.67297013        1.21999921
 C           -1.52043891       -1.76235735        0.41179080
 C           -2.22855586       -0.56118221        0.33457518
 C            0.43609301       -2.47900149       -0.75009067
 C           -0.93726201       -2.25130439       -0.75433505
 C            1.99041543       -0.98499668       -1.72252763
 C            1.15834030       -2.10079354       -1.86201617
 C            2.08061195        1.32175370       -2.38992792
 C            2.03664872       -0.01869388       -2.74137612
 C            0.53268833        3.00101493       -1.84547052
 C            1.08525210        2.22508468       -2.94660799
 C           -1.38790180        3.10069229       -0.41051515
 C           -2.46516768        2.16644678       -0.12027638
 C           -0.84934827        3.10555048       -1.69466725
 C           -2.59984037       -0.08115350       -0.93654407
 C           -2.84125401        1.29102062       -1.11954876
 C           -1.54982727       -1.99978379       -1.97786195
 C           -2.42476290       -0.90872810       -2.06220416
 C            0.58338432       -2.39214225       -3.08490029
 C           -0.86591519       -2.43637008       -3.11589066
 C            1.54795412       -0.32772805       -4.01000772
 C            1.01846889       -1.65135181       -4.23947892
 C            0.24892514        1.75835953       -3.95618358
 C            0.64615008        0.61739525       -4.65737961
 C           -1.67518414        2.68126771       -2.73407330
 C           -2.79835373        1.81677884       -2.40141621
 C           -1.08915939        2.16017863       -3.95691514
 C           -2.88517693       -0.47230107       -3.31042651
 C           -3.04161442        0.94625862       -3.52363058
 C           -2.11494878        1.33215257       -4.57509904
 C           -1.29143026       -2.02076319       -4.43454501
 C           -0.11264844       -1.54889311       -5.14603210
 C           -0.31743174       -0.14350381       -5.43889555
 C           -2.30470626       -0.99862262       -4.53420093
 C           -1.72867912        0.12323787       -5.26683594
