   70
C70 / DATE: 7/ 1/2024 / Origin: Program Fullerene / C70 from database
 C            1.40975012        0.04544884        4.58859821
 C            0.66159338       -1.12970623        4.18977632
 C            1.46535631       -1.88304430        3.25427142
 C            2.62155890        0.08467356        3.78942227
 C            2.61989131       -1.06174055        2.91221198
 C            2.69736982        1.38955234        3.18742192
 C            0.61500236        1.21222140        4.23837702
 C            1.45765913        2.09295691        3.47787746
 C           -0.63635950       -0.69062884        3.74318830
 C           -0.60613169        0.75727623        3.62048135
 C           -1.24310352       -1.38845484        2.71989816
 C            0.82098785       -2.56614534        2.22766236
 C           -0.56824698       -2.43959887        2.08220486
 C            1.57825423       -2.87042564        1.10867925
 C            2.94765597       -0.89593864        1.56639817
 C            2.63423374       -1.95077353        0.71189725
 C            3.19819308        1.51325774        1.89869109
 C            3.12945258        0.39808941        1.03584930
 C            3.06831798        2.78547669        1.35727090
 C            0.90481972        2.83419865        2.44316561
 C            1.84083426        3.50333338        1.66822355
 C           -1.02739577        1.33329771        2.41534808
 C           -0.28454119        2.37582149        1.83073279
 C           -2.20786068       -0.71047152        2.00152945
 C           -1.94276186        0.61210533        1.63918451
 C           -3.05819177       -1.47770944        1.23535628
 C           -1.21702367       -3.06576050        1.00588568
 C           -2.57984671       -2.78890067        0.84428870
 C            0.91435396       -3.33102889       -0.08913973
 C           -0.46030027       -3.52992896       -0.08614063
 C            2.48681809       -1.70629066       -0.70871872
 C            1.51379929       -2.64662294       -1.22415980
 C            3.03190117        0.58900164       -0.35752710
 C            2.46930254       -0.40137652       -1.15711160
 C            3.35292990        2.98542638       -0.03970614
 C            3.22835471        1.84485096       -0.91644473
 C            1.40792002        4.18545074        0.48017129
 C            2.45633537        4.02378782       -0.51421376
 C           -0.64260780        2.83373195        0.54810322
 C            0.15671456        3.77364786       -0.11215715
 C           -2.28084136        1.05591227        0.35744086
 C           -1.58421680        2.12657592       -0.21180674
 C           -3.68821425       -0.88349947        0.08097062
 C           -3.18523509        0.31448073       -0.41632082
 C           -3.27282523       -3.15144753       -0.37483593
 C           -3.99111790       -1.97070318       -0.83545422
 C           -1.05600369       -3.70505798       -1.33462847
 C           -2.49575797       -3.66038810       -1.47660063
 C            0.69445584       -2.27996400       -2.28566585
 C           -0.46618643       -3.02974590       -2.48039674
 C            1.67766606       -0.05171430       -2.25652321
 C            0.78692194       -0.98438584       -2.81131925
 C            2.39614536        2.23739760       -2.04039120
 C            1.83082545        3.53629447       -1.72401945
 C            0.39573276        3.60706098       -1.53510133
 C            1.53703848        1.29674506       -2.59914068
 C           -1.56297878        2.27970466       -1.60220017
 C           -0.37267992        2.67105446       -2.19899841
 C            0.28309968        1.74224324       -3.00618543
 C           -3.31992631        0.58548499       -1.77505522
 C           -2.45548941        1.57020126       -2.39088613
 C           -3.71021591       -1.79507170       -2.24614740
 C           -2.80366606       -2.86050392       -2.65082703
 C           -1.54723941       -2.51886339       -3.30454822
 C           -3.48876977       -0.51115051       -2.72407409
 C           -0.17333536       -0.53563571       -3.72108682
 C           -0.49875037        0.87982854       -3.75656026
 C           -1.93933585        0.99553201       -3.62093426
 C           -1.41395540       -1.27332181       -3.89603722
 C           -2.51013322       -0.32612302       -3.77951372
