   70
C70 / DATE: 7/ 1/2024 / Origin: Program Fullerene / C70 from database
 C            1.32156761       -0.23062439        4.22883926
 C            2.52920698       -0.47823609        3.46185131
 C            2.52578416       -1.88662150        3.08912802
 C            0.46577463       -1.39903110        4.10396877
 C            1.20789319       -2.42399298        3.39475991
 C           -0.81291474       -0.96077757        3.57074511
 C            0.52546978        0.94081504        3.92078286
 C           -0.80310160        0.49072683        3.54270716
 C            1.10905224        1.97110834        3.20455415
 C            2.97734646        0.48455227        2.55494889
 C            2.38361518        1.74618120        2.53300167
 C            3.77274017        0.09919449        1.47887130
 C            3.18769364       -2.28918304        1.93568347
 C            3.97848829       -1.31374318        1.21015428
 C            2.49771441       -3.11576041        0.95572662
 C            0.54183833       -3.19304522        2.45032915
 C            1.22614504       -3.59912290        1.23201178
 C           -1.38810311       -1.65189018        2.50391906
 C           -0.83427718       -2.86401795        2.09961289
 C           -2.25143277       -0.97229220        1.63904561
 C           -1.48551502        1.12941396        2.51545386
 C           -2.43957191        0.40347977        1.81669511
 C            0.28092856        2.76543621        2.31563747
 C           -0.98773773        2.31264335        1.95772558
 C            2.36224635        2.50159816        1.28905640
 C            1.15171060        3.30801297        1.29136807
 C            3.61841347        0.77477867        0.19856946
 C            2.78918989        1.89123391        0.10996907
 C            3.76716887       -1.53239904       -0.21114437
 C            2.76884386       -2.56927232       -0.36409885
 C            3.52059875       -0.24694499       -0.82623848
 C            1.71125948       -2.36678846       -1.24852204
 C            0.23910374       -3.63688580        0.16706044
 C           -1.05906948       -3.32997217        0.74558544
 C            0.54642208       -3.11972724       -1.08908637
 C           -2.70254181       -1.60141659        0.46918017
 C           -1.99728381       -2.68801200       -0.05149187
 C           -3.65331507       -0.97131635       -0.33124762
 C           -3.30717458        1.10131084        0.99401687
 C           -4.05430219        0.38296943       -0.01460681
 C           -1.60492372        2.84934065        0.82103627
 C           -2.83889308        2.34559915        0.41422300
 C            0.59516894        3.68458950        0.08192124
 C           -0.84429403        3.57462290       -0.09574391
 C            2.09965846        2.13854979       -1.08350055
 C            1.21226798        3.21175072       -1.14175729
 C            2.50797635       -0.12957095       -1.76289050
 C            1.70106660       -1.23101277       -2.07180139
 C            2.05372253        1.14543096       -2.06861989
 C            0.70426125       -1.08560452       -3.04157473
 C           -0.50572408       -2.93380637       -1.97572228
 C           -1.84755686       -2.80166124       -1.43151614
 C           -0.37290703       -1.96827726       -3.04863902
 C           -3.54333458       -1.06978310       -1.77772656
 C           -2.61066244       -1.94298311       -2.32042292
 C           -1.71107379       -1.48731043       -3.36950674
 C           -4.01577036        1.16446123       -1.23948532
 C           -3.16820416        2.32072310       -1.00364696
 C           -3.69263187        0.26790208       -2.33264601
 C           -1.09519409        3.41125799       -1.52013882
 C            0.19679002        3.25608484       -2.17798240
 C           -2.19221628        2.65835279       -1.93774971
 C            1.25044171        1.30008616       -3.19095265
 C            0.60296748        0.12039294       -3.73578324
 C            0.31048209        2.40544154       -3.26359483
 C           -1.86843122       -0.22012088       -3.91403112
 C           -2.82027902        0.70772647       -3.32065357
 C           -2.15096637        1.99230860       -3.16452293
 C           -0.68210648        0.53305532       -4.27403631
 C           -0.89950864        1.92007213       -3.89705748
