   70
C70 / DATE: 7/ 1/2024 / Origin: Program Fullerene / C70 from database
 C            1.02756447       -0.21589982        4.74503360
 C            2.32760037       -0.50724583        4.18914649
 C            2.21138404       -1.74788071        3.43007131
 C            0.18938307       -1.37111643        4.47622105
 C            0.80487446       -2.08034743        3.37254025
 C           -1.15496118       -0.87584034        4.30331498
 C            0.31054082        0.93840344        4.24041562
 C           -1.08701656        0.58078794        4.30412416
 C            0.79648022        1.59691894        3.10903586
 C            2.92601665        0.46275300        3.29634102
 C            2.16911072        1.54247853        2.83148367
 C            2.93009640       -1.55141024        2.18718124
 C            3.67944640       -0.31840033        2.33654582
 C            2.28570490       -1.78754816        0.97716199
 C            0.16511576       -2.09981766        2.13254415
 C            0.92636855       -2.12866037        0.95743929
 C           -1.87879191       -1.25057344        3.10689504
 C           -1.21793650       -1.88919452        2.05783649
 C           -1.96518594        1.04481560        3.25465088
 C           -2.70678085       -0.11167254        2.78425835
 C           -0.09809390        2.08131551        2.13561562
 C           -1.48624357        1.93881925        2.30361988
 C            0.39787419        2.56737330        0.92125949
 C            2.67329922        2.26716425        1.75675390
 C            1.75186768        2.79944017        0.77049670
 C            4.12547820        0.31787788        1.19160891
 C            3.81881067        1.73024922        1.04137891
 C            2.88284296       -1.30628671       -0.18706945
 C            3.85657763       -0.30512070       -0.09347647
 C            2.27312754       -1.54707042       -1.41647620
 C            0.28370771       -2.27768255       -0.27098663
 C            1.03422358       -2.19216106       -1.44512660
 C           -1.83679263       -1.86498527        0.80828653
 C           -1.11274258       -2.23249731       -0.32718232
 C           -3.24431891       -0.05105752        1.51027339
 C           -3.02095068       -1.13397764        0.66233609
 C           -2.33155760        2.19031730        1.22275740
 C           -3.36199858        1.20780213        0.93308232
 C           -0.40175939        2.54261594       -0.21385004
 C           -1.76967113        2.59745321       -0.05188863
 C            0.14561827        2.18165661       -1.44850874
 C            2.34015536        2.63637444       -0.54861272
 C            3.63132119        1.99402159       -0.37383006
 C            3.88082834        0.75596896       -1.08561891
 C            1.53525410        2.22976991       -1.61505405
 C            2.65881795       -0.77406798       -2.50909695
 C            3.19578822        0.54641644       -2.26679267
 C            2.12310362        1.46532455       -2.61669721
 C            1.74084591       -0.61800444       -3.61333227
 C            1.27763864        0.76435589       -3.55946794
 C            0.41316533       -2.42092676       -2.67166100
 C            0.79783306       -1.60806875       -3.81887108
 C           -1.77084149       -2.34159835       -1.55454767
 C           -1.02987277       -2.58489196       -2.71055798
 C           -3.66474400       -1.13711110       -0.56807687
 C           -3.09587477       -1.91312251       -1.65337158
 C           -3.67505716        1.29564807       -0.47949527
 C           -2.63008563        2.09706462       -1.10480996
 C           -4.09182198        0.14109662       -1.12388817
 C           -0.67568821        1.63987774       -2.45713465
 C           -0.09113329        1.00332389       -3.56696227
 C           -2.07475388        1.66718703       -2.30933740
 C           -0.42026159       -1.22285725       -4.50029683
 C           -1.48518110       -2.05803401       -3.98766981
 C           -0.85609113        0.15475959       -4.36311849
 C           -3.57302104       -1.30260536       -2.88193598
 C           -3.91031140        0.07033794       -2.55843236
 C           -2.88558973        0.90702120       -3.15323174
 C           -2.69228296       -1.26010389       -4.02772202
 C           -2.29045215        0.13104869       -4.21552139
