   70
C70 / DATE: 7/ 1/2024 / Origin: Program Fullerene / C70 from database
 C            1.20132387       -0.13261576        4.66095668
 C            2.42127116       -0.46919889        3.97008951
 C            2.22084577       -1.77143687        3.34398353
 C            0.33612742       -1.29564234        4.56837911
 C            0.81216504       -2.07462500        3.44370506
 C           -1.01744271       -0.80352040        4.52959832
 C            0.42958736        0.99473661        4.17991147
 C           -0.95512398        0.65065823        4.42112094
 C            0.76802517        1.59023208        2.96530581
 C            2.89036897        0.41633442        2.92479612
 C            2.05262841        1.41614375        2.42470848
 C            2.81713994       -1.69732254        2.03005115
 C            3.55638352       -0.45002933        1.98151245
 C            2.06661758       -2.05427415        0.91430835
 C            0.04549102       -2.13221457        2.27653382
 C            0.67829731       -2.21596148        1.02896582
 C           -1.87815179       -1.24910376        3.45650445
 C           -1.33437902       -1.89819934        2.34116313
 C           -1.95215591        1.03804243        3.43889971
 C           -2.77332694       -0.13840592        3.22793995
 C           -0.23414234        2.19811940        2.20238844
 C           -1.56402966        1.78105511        2.32392947
 C            0.12749583        2.98328204        1.11896257
 C            2.35846366        1.97026455        1.17605779
 C            1.47205046        2.86553884        0.58659765
 C            3.85544099        0.06202432        0.73556195
 C            3.34634510        1.38002443        0.38478596
 C            2.60741462       -1.75591372       -0.33453739
 C            3.60253542       -0.77870739       -0.41535900
 C            1.89975143       -2.08682456       -1.48666890
 C           -0.09085882       -2.30843446       -0.13165754
 C            0.54782919       -2.42942364       -1.36885606
 C           -2.10040385       -1.92599085        1.17106731
 C           -1.48625085       -2.18043489       -0.06470569
 C           -3.54778744       -0.18317500        2.09093818
 C           -3.35624147       -1.31233467        1.20509561
 C           -2.39825027        1.77762932        1.19802737
 C           -3.53688762        0.97452828        1.21967007
 C           -0.78888635        3.09923810       -0.00079787
 C           -1.94398873        2.32231801       -0.01114357
 C            1.38469044        2.94002850       -0.86513592
 C            0.00551221        3.23440035       -1.20866303
 C            3.21899664        1.41208458       -1.06856568
 C            3.62805007        0.10594957       -1.56092417
 C            2.12436631        2.05306275       -1.64483788
 C            2.40704642       -1.63748223       -2.70835915
 C            3.08870144       -0.35968397       -2.74288942
 C            1.59468155       -1.69760607       -3.90462275
 C           -0.22061736       -2.66414518       -2.50331184
 C            0.27497840       -2.27307923       -3.81055145
 C           -2.24435319       -2.11312156       -1.24669286
 C           -1.62099510       -2.31259105       -2.47033510
 C           -4.00292274       -0.93562576       -0.03031440
 C           -4.10533785        0.51889060       -0.02828854
 C           -3.38465902       -1.32281849       -1.27200702
 C           -2.51227921        1.93559577       -1.23657610
 C           -3.53190630        0.99399436       -1.26636811
 C           -3.38899149       -0.15869850       -2.13880470
 C           -0.50478673        2.76878467       -2.40615708
 C           -1.81668138        2.14635545       -2.42336632
 C            1.61407515        1.59367452       -2.86568485
 C            2.23442323        0.52378797       -3.50989214
 C            1.45774825       -0.33163534       -4.39440463
 C            0.35622581        2.01378268       -3.29960950
 C           -0.66494075       -1.31224026       -4.36570001
 C           -1.83749812       -1.31811410       -3.51358732
 C           -2.45605266       -0.11679752       -3.17022332
 C           -1.80463269        1.09309542       -3.43118232
 C            0.04366673       -0.06494319       -4.57663594
 C           -0.49179958        1.10871486       -4.06409867
