   70
C70 / DATE: 7/ 1/2024 / Origin: Program Fullerene / C70 from database
 C            1.26717736        0.09850357        5.02146231
 C            0.49542170       -1.11930843        4.83369376
 C            1.34952502       -2.08434617        4.18464618
 C            2.48663344       -0.03374877        4.24401332
 C            2.61606108       -1.42622115        3.88784119
 C            2.44694896        0.94942896        3.17519738
 C            0.50143196        1.19573240        4.45722111
 C            1.27933762        1.78777818        3.39725922
 C           -0.74461032       -0.75559007        4.18271369
 C           -0.80908353        0.69670017        4.11477016
 C           -1.20680948       -1.48581892        3.08699017
 C            0.88822730       -2.70741448        2.95548450
 C           -0.32682613       -2.32679162        2.38366361
 C            2.94691277       -1.74753008        2.51756341
 C            2.04959878       -2.80738582        2.09681168
 C            2.76057112        0.57083181        1.86310327
 C            3.22409930       -0.72978263        1.60593110
 C            2.26689248        1.35981852        0.81197096
 C            0.61065522        2.25866634        2.28079569
 C            1.33787335        2.36084917        1.10790408
 C           -1.47163834        1.25647054        3.02736399
 C           -0.78678823        2.15404670        2.19354211
 C           -2.30162971       -0.95044191        2.42141680
 C           -2.48404295        0.49097280        2.47281790
 C           -2.60060878       -1.37556850        1.07064748
 C           -0.50254064       -2.54492242        1.00886002
 C           -1.64801682       -2.07332009        0.35814801
 C            1.85503098       -2.96983563        0.73428649
 C            0.54834150       -3.09497858        0.26092698
 C            3.39857629       -1.13405796        0.28818867
 C            2.80674956       -2.40104446       -0.10620734
 C            2.48243078        0.98203970       -0.51880653
 C            3.15079368       -0.19894267       -0.79005897
 C            1.78844324        1.61975448       -1.54903541
 C            0.79728332        3.12500285        0.09188503
 C            1.15791978        2.82742303       -1.27609092
 C           -1.41109735        2.63121912        1.02787860
 C           -0.63279507        3.36450505        0.12628459
 C           -3.07672580        0.90590892        1.22494192
 C           -3.29044527       -0.28438687        0.41645928
 C           -2.61964919        2.05814189        0.59862204
 C           -3.21677808       -0.15091233       -0.96576580
 C           -1.70498303       -2.05454270       -1.03230245
 C           -2.38285128       -1.01473102       -1.69894038
 C            0.36202622       -3.34481099       -1.09759294
 C           -0.87456857       -2.92109286       -1.72717279
 C            2.54550045       -2.34541272       -1.52929945
 C            2.76559611       -0.96887435       -1.95895083
 C            1.44670217       -3.03444714       -2.01874350
 C            1.51268184        0.93673939       -2.74309490
 C            1.90427595       -0.39820918       -2.89295325
 C            0.65016873        1.50086150       -3.68809814
 C            0.06846163        3.28546540       -2.11537328
 C           -1.07185802        3.55745681       -1.24376361
 C           -0.12028536        2.68840479       -3.35274612
 C           -3.07395272        2.27175862       -0.70172919
 C           -3.50321212        1.11297965       -1.46857609
 C           -2.34228037        3.13953984       -1.60352090
 C           -1.46778661        2.50552896       -3.86075046
 C           -3.27866578        1.39286613       -2.86465427
 C           -2.58981379        2.67239882       -2.95685896
 C           -2.15441541       -0.78118840       -3.07100161
 C           -0.20340852        0.62871674       -4.48136879
 C           -2.53775185        0.42987269       -3.64486233
 C           -1.54947742        1.16630254       -4.41377950
 C           -0.58932046       -2.66839320       -3.11926682
 C            0.85470658       -2.58221378       -3.26013155
 C            1.15857000       -1.23991576       -3.71816846
 C           -1.15209592       -1.48661376       -3.73083017
 C           -0.05481335       -0.73989062       -4.33081096
