   70
C70 / DATE: 7/ 1/2024 / Origin: Program Fullerene / C70 from database
 C            1.18318932       -0.11551777        4.58497334
 C            2.39919153       -0.50401819        3.90310981
 C            2.15806965       -1.79095878        3.26057071
 C            0.31476737       -1.27551412        4.58587816
 C            0.78908190       -2.16276390        3.53624128
 C           -1.04385272       -0.78262430        4.50277590
 C            0.41403452        0.99188983        4.04200547
 C           -0.98323561        0.63598866        4.17213580
 C            0.85599415        1.60513202        2.87155671
 C            2.91785759        0.38016079        2.88254701
 C            2.21723676        1.53874741        2.55890221
 C            2.58445672       -1.67448009        1.88001175
 C            3.36718421       -0.45911515        1.78989228
 C            1.68683275       -1.95683524        0.85536508
 C           -0.06541308       -2.46328619        2.47820384
 C            0.41311250       -2.44891141        1.15399954
 C           -1.92922116       -1.39790166        3.53854839
 C           -1.44163110       -2.40659804        2.71157299
 C           -1.86861433        0.85810300        3.04394911
 C           -2.68697588       -0.32962683        2.91509210
 C           -0.06816779        1.95850557        1.87319228
 C           -1.36507488        1.43825568        1.88778805
 C            0.37823097        2.62716104        0.73408973
 C            2.67651385        2.24468509        1.45848300
 C            1.72219374        2.97981551        0.65755204
 C            3.50509321        0.14088223        0.54885849
 C            3.52580690        1.53257026        0.52042656
 C            1.93835506       -1.42159228       -0.40887553
 C            3.00740777       -0.52914634       -0.56776665
 C            1.01081567       -1.60800448       -1.44226703
 C           -0.45893831       -2.75942109        0.10954820
 C           -0.20789256       -2.25718907       -1.17935880
 C           -2.29429532       -2.83774656        1.71032994
 C           -1.72187678       -3.23897913        0.44308269
 C           -3.26740032       -0.61179775        1.68678554
 C           -3.40097246       -1.96288210        1.37650576
 C           -2.02760160        1.21061192        0.68190118
 C           -3.09212472        0.29950761        0.63741033
 C           -0.39913921        2.60682503       -0.42950693
 C           -1.54343237        1.80415909       -0.48887067
 C            0.09640631        3.17979976       -1.60159262
 C            2.34036859        3.18317681       -0.63990340
 C            3.42434892        2.21047588       -0.75736333
 C            1.52237420        3.43481491       -1.73073439
 C            3.26439796        0.01770424       -1.81787915
 C            3.53657339        1.44534369       -1.91054212
 C            1.28548137       -1.11324115       -2.72468478
 C            2.42824853       -0.35000703       -2.94000975
 C            0.25390603       -1.00053287       -3.64721947
 C           -1.20223187       -2.30981609       -2.17409264
 C           -1.04545308       -1.54470705       -3.32352065
 C           -2.79605499       -3.16654804       -0.52262869
 C           -3.85403879       -2.34834094        0.06042361
 C           -2.51067806       -2.63468755       -1.83097926
 C           -3.73303878        0.05535905       -0.57459753
 C           -4.16817133       -1.29673661       -0.88109740
 C           -3.55095302       -1.66873155       -2.13547739
 C           -2.11460317        1.49978308       -1.73141287
 C           -2.03548308       -0.51220050       -3.61219892
 C           -3.18730602        0.61466120       -1.79780754
 C           -3.15127380       -0.44583320       -2.79730418
 C           -0.38647007        2.69813409       -2.88244688
 C            0.01860635        0.28233378       -4.29265518
 C           -1.37830690        1.72738363       -2.89545267
 C           -1.29054064        0.70613474       -3.83905376
 C            1.94269804        2.98452128       -3.04682635
 C            2.94264214        1.93765004       -3.13721438
 C            2.34522775        0.80517694       -3.82223259
 C            0.76287550        2.53460016       -3.76135809
 C            1.04088260        1.21623906       -4.30877729
