   70
C70 / DATE: 7/ 1/2024 / Origin: Program Fullerene / C70 from database
 C            1.08239956        0.11129574        4.45341698
 C            2.39106394       -0.18846968        3.91713190
 C            2.42099395       -1.61386178        3.65082579
 C            0.26305277       -1.08620820        4.31772119
 C            1.04434083       -2.06991136        3.60632545
 C           -1.00641367       -0.68342645        3.76054307
 C            0.33522368        1.20377602        3.86821555
 C           -1.04437297        0.76909351        3.76195708
 C            0.87618990        1.92653655        2.81107494
 C            2.81067261        0.48291821        2.70088575
 C            1.95013491        1.39162063        2.08631858
 C            3.23605126       -1.81920787        2.47399926
 C            3.49243594       -0.50588602        1.88693315
 C            2.88005613       -2.85599070        1.62693550
 C            0.56061882       -2.60866737        2.41329695
 C            1.47678729       -3.25769106        1.58561432
 C           -1.51313399       -1.35134356        2.65515731
 C           -0.66266514       -2.15879874        1.88076887
 C           -2.63742962       -0.78864794        2.07118341
 C           -1.87258414        1.41360031        2.84495041
 C           -2.83106096        0.65089390        2.17987809
 C            0.02897527        2.82744985        2.18686473
 C           -1.40780145        2.58827485        2.25405904
 C            0.33359994        3.27609455        0.84568028
 C            2.01156268        1.55871062        0.69571245
 C            1.24088316        2.55422602        0.07933294
 C            3.47471056       -0.36684629        0.50184830
 C            2.87602611        0.76109881       -0.06638984
 C            3.35772555       -2.79955980        0.26263269
 C            3.68426503       -1.49939889       -0.28719943
 C            1.13278568       -3.52356652        0.20471676
 C            2.33830104       -3.38292904       -0.58871166
 C           -0.99997321       -2.45734595        0.54702191
 C           -0.04614113       -3.01242070       -0.30882816
 C           -3.04347717       -1.19727008        0.74664733
 C           -2.22984387       -2.04730345        0.01395332
 C           -3.40177719        1.11804051        0.92622261
 C           -3.64351449       -0.04643856        0.08850298
 C           -1.98883298        3.06307148        1.00756458
 C           -0.91878127        3.70296511        0.25317718
 C           -2.94420186        2.29375199        0.34382089
 C           -1.01259758        3.76971195       -1.12538399
 C            1.18238923        2.64901138       -1.31536583
 C            0.07958806        3.24394346       -1.92854223
 C            2.89432741        0.89823453       -1.45010980
 C            1.98434730        1.82584873       -2.09159289
 C            3.23714234       -1.50520664       -1.66841720
 C            2.27257821       -2.58584205       -1.80248265
 C            2.95938099       -0.29372183       -2.27810500
 C           -0.11738908       -2.74967508       -1.67265481
 C            1.02355276       -2.30083011       -2.34643291
 C           -2.44944620       -2.13099686       -1.36084310
 C           -1.36551324       -2.54376905       -2.23307263
 C           -3.54579301        0.06829754       -1.29492836
 C           -3.17278173       -1.05664444       -2.02809452
 C           -3.15074700        2.48726442       -1.01882312
 C           -2.25602631        3.36493404       -1.75172445
 C           -3.44230587        1.33952880       -1.86682630
 C           -0.49261012        2.61363776       -3.10939013
 C           -1.93609196        2.72831214       -3.01694242
 C           -2.73652684        1.52756154       -3.13060883
 C            1.39717029        1.15546601       -3.24304387
 C            1.85540610       -0.22170159       -3.21989923
 C            0.91565457       -1.24570983       -3.25713503
 C            0.07542400        1.43286984       -3.58437235
 C           -1.45752506       -1.77880002       -3.45948383
 C           -2.60213483       -0.89236965       -3.35223666
 C           -2.18729993        0.42963140       -3.77240281
 C           -0.30979183       -0.99077004       -3.86087042
 C           -0.74923221        0.38955501       -4.01997709
