   70
C70 / DATE: 7/ 1/2024 / Origin: Program Fullerene / C70 from database
 C            1.58517158        0.01076976        4.59440473
 C            0.79310467       -1.19951482        4.54557096
 C            1.58052136       -2.19456568        3.84996577
 C            2.65959041       -0.13279765        3.62235013
 C            2.58292271       -1.46627755        3.07898888
 C            2.57219054        0.97964395        2.70837279
 C            0.74010041        1.10038776        4.14897184
 C            1.49036252        1.83348541        3.16134701
 C           -0.51311108       -0.86802453        4.00157572
 C           -0.53967102        0.56002857        3.73957078
 C           -1.07078577       -1.73145607        3.06827833
 C            0.89535903       -3.21616932        3.21619793
 C           -0.51703516       -3.00878958        2.91959949
 C            1.49245239       -3.77908337        2.02335172
 C            2.64277706       -1.65080308        1.69609155
 C            2.34102815       -2.91890183        1.21621420
 C            2.68571742        0.76218476        1.33359169
 C            2.57862699       -0.54379067        0.82609548
 C            2.33889064        1.83202913        0.50805121
 C            0.79154121        2.48899624        2.17036244
 C            1.52400213        2.83041086        1.05398822
 C           -1.08954981        1.02412987        2.54603441
 C           -0.55779282        2.17891786        1.96398652
 C           -1.88208704       -1.21194579        2.05828833
 C           -1.84973151        0.15847096        1.75797080
 C           -2.47863966       -2.09571454        1.17118160
 C           -0.83683485       -3.80554527        1.74498369
 C            0.41563695       -4.26626974        1.18038430
 C           -1.82268413       -3.35731954        0.88120665
 C            1.93836923       -3.08498124       -0.15953317
 C            0.73354817       -3.90456850       -0.18589071
 C            2.31138241       -0.73421387       -0.54525014
 C            2.02473515       -2.01626711       -1.03639165
 C            2.37668755        1.66414164       -0.87431597
 C            2.20383693        0.37758238       -1.40214175
 C            2.18907270        2.78986691       -1.67725829
 C            0.94339117        3.76173676        0.21997849
 C            1.47454723        3.91499073       -1.11249948
 C           -1.17696075        2.71274156        0.82896312
 C           -0.50327377        3.72566997        0.13263461
 C           -2.41369654        0.63961071        0.56704303
 C           -2.15810040        1.96423206        0.17047908
 C           -3.01629879       -1.59769813       -0.07209458
 C           -3.11909085       -0.23255743       -0.27868578
 C           -1.58898806       -3.39691695       -0.55793867
 C           -0.29326389       -3.54534886       -1.05577859
 C           -2.48524967       -2.41683709       -1.15197792
 C            1.32457832       -2.14391784       -2.22535705
 C            0.06482437       -2.86938947       -2.21610821
 C            1.74099705        0.20634270       -2.72035250
 C            1.17349410       -1.00091082       -3.08582855
 C            1.71818736        2.62952536       -3.03346793
 C            1.35981488        1.30652644       -3.47464355
 C            0.36417834        4.23545567       -1.99094388
 C           -0.86682090        4.04927342       -1.23703036
 C            0.55843030        3.49155067       -3.21819481
 C           -2.70646934        2.46150863       -1.01263273
 C           -1.93646883        3.38842006       -1.82146900
 C           -3.40149189        0.15604736       -1.57972190
 C           -3.35820367        1.55395799       -1.92720869
 C           -2.15147709       -1.79582200       -2.35327532
 C           -0.91477418       -2.06531438       -2.93229954
 C           -0.18446080       -1.00279589       -3.60853878
 C           -2.79594021       -0.60039845       -2.66442963
 C            0.00144975        1.35014037       -3.99640546
 C           -0.53223749        2.67571624       -3.71944206
 C           -1.79244293        2.79803933       -3.14847230
 C           -2.69380732        1.66699248       -3.21682398
 C           -0.80557916        0.21736077       -3.86005898
 C           -2.15850181        0.35802171       -3.55361358
