   70
C70 / DATE: 7/ 1/2024 / Origin: Program Fullerene / C70 from database
 C            1.25624307        0.08681586        4.55488234
 C            2.20144952       -0.14076190        3.48052038
 C            2.29797682       -1.57698647        3.33616672
 C            0.40253912       -1.08687921        4.61866720
 C            1.10379649       -2.15307861        3.93872244
 C           -0.89767208       -0.68600439        4.11373246
 C            0.38635193        1.23404442        4.46858032
 C           -0.97869608        0.74253183        4.31597107
 C            0.60079629        2.18421010        3.39778842
 C            2.13876741        0.64595005        2.32896425
 C            1.48068036        1.88179364        2.35322620
 C            2.55325110        0.11026576        1.10576759
 C            2.41538892       -2.12727518        2.00180057
 C            2.64647311       -1.27844715        0.93334807
 C            0.41130608       -2.87113729        2.88900515
 C            1.38395304       -3.13139706        1.84420518
 C           -1.35774446       -1.23277507        2.91596375
 C           -0.87084408       -2.48105432        2.50958555
 C           -2.10763604       -0.44662228        2.02357403
 C           -1.60708645        1.55543461        3.29595412
 C           -0.71732123        2.67621499        3.06271395
 C           -2.19801758        0.94556143        2.19376673
 C           -0.85269294        3.37683139        1.88089794
 C            1.36793667        2.61957051        1.17117522
 C            0.32874419        3.54552783        1.05938312
 C            2.64335719        0.94177465       -0.01194885
 C            2.03635804        2.20035678        0.01658435
 C            3.04953454        0.38917718       -1.22722524
 C            2.49714257       -1.80836157       -0.34178721
 C            2.93062432       -1.04454242       -1.41542616
 C            0.90921099       -3.39087451        0.56161434
 C            1.60671142       -2.87292537       -0.53587534
 C           -1.38439332       -3.06602239        1.36188022
 C           -0.45017171       -3.66526765        0.42239633
 C           -2.68937119       -1.04299913        0.89918472
 C           -2.38684443       -2.36215901        0.58816288
 C           -3.26194242       -0.24801576       -0.08756590
 C           -2.52775535        1.75444799        1.10465474
 C           -1.91992922        3.00069056        0.96924655
 C           -3.14969564        1.19326776        0.00071767
 C           -0.14712084        3.92951393       -0.25334324
 C           -1.52569060        3.46085316       -0.35461927
 C            1.87412615        2.92648529       -1.16788380
 C            0.70063944        3.76922632       -1.33323200
 C            2.68405004        1.02714010       -2.47858077
 C            2.14886978        2.30232511       -2.45196781
 C            2.40001701       -1.28443080       -2.74516942
 C            2.08267346        0.01028550       -3.33380603
 C            1.15519669       -3.18079020       -1.81949169
 C            1.55427512       -2.36141874       -2.95237080
 C           -1.06009677       -3.62358058       -0.89334468
 C           -2.22437602       -2.74961330       -0.80734359
 C           -0.23800518       -3.55480157       -2.00664082
 C           -3.11519889       -0.62442411       -1.48627291
 C           -2.47910962       -1.81694146       -1.81402843
 C           -2.85125108        1.70709281       -1.32907674
 C           -1.93771726        2.74655577       -1.48009066
 C           -2.82174658        0.58033139       -2.24918430
 C            0.11442762        3.45967265       -2.62090411
 C            1.04403629        2.60739660       -3.33914223
 C           -1.19439351        2.83014688       -2.65444380
 C            0.83469368        0.23273402       -3.92777545
 C           -1.87284889        0.54055820       -3.26861429
 C            0.28906292        1.51152625       -3.91712814
 C           -1.10604370        1.67381522       -3.53331547
 C            0.39442984       -2.18293948       -3.80234690
 C           -0.72771464       -2.86700131       -3.18308726
 C           -1.80998890       -1.91035987       -3.03205579
 C           -0.03187820       -0.83588133       -4.13190006
 C           -1.42409631       -0.69435706       -3.73181545
