   70
C70 / DATE: 7/ 1/2024 / Origin: Program Fullerene / C70 from database
 C            1.50238662       -0.15659488        4.29095923
 C            2.66136847       -0.33177218        3.42969196
 C            2.44300854       -1.54097480        2.65292939
 C            0.66056793       -1.32802837        4.14613192
 C            1.34473155       -2.26298700        3.27280834
 C           -0.66901249       -0.88059779        3.76878934
 C            0.66418797        1.01735639        4.10958847
 C           -0.61868707        0.56028124        3.59965343
 C            1.23563905        2.15315749        3.56134158
 C            3.19030108        0.78592140        2.80298996
 C            2.61927952        2.08415326        3.11634681
 C            3.41533612        0.74719991        1.36675764
 C            2.52883808       -1.49967817        1.26145223
 C            2.94475401       -0.32497714        0.62370753
 C            1.93944470       -2.52359488        0.51394192
 C            0.56677519       -3.08934837        2.47832080
 C            0.97694827       -3.33892954        1.10724317
 C           -1.37770612       -1.62824921        2.83987072
 C           -0.86901896       -2.86657756        2.44495615
 C           -2.27119043       -0.97367189        1.99694353
 C           -1.14975281        1.12185583        2.43782353
 C           -2.04364168        0.37194119        1.66975984
 C            0.49899251        2.88982992        2.54992568
 C           -0.59296311        2.29235256        1.91188492
 C            2.74447680        2.91780144        1.93701743
 C            3.23090610        2.08949286        0.84444777
 C            1.48228569        3.60993188        1.75706696
 C            2.65634119        2.26721456       -0.41431413
 C            2.67718529       -0.13585724       -0.72793170
 C            2.36698058        1.14288446       -1.20726347
 C            1.99944622       -2.47391900       -0.87444417
 C            2.44349668       -1.25021029       -1.51653488
 C            0.88486321       -2.99729617       -1.64835864
 C           -0.21929379       -3.69232674        0.35338399
 C           -1.36496107       -3.48257375        1.22506085
 C           -0.29571235       -3.34401030       -0.99399673
 C           -3.08168482       -1.75753540        1.18497118
 C           -2.54375462       -3.00816812        0.67695039
 C           -3.82934285       -1.13388698        0.11564394
 C           -2.51472737        0.89863412        0.46292068
 C           -3.48135787        0.21644452       -0.26694047
 C           -0.96114281        2.72984420        0.63492123
 C           -1.82927850        1.95137143       -0.14051022
 C            1.13691576        3.96867639        0.46864990
 C            1.94847307        3.44925700       -0.61848609
 C           -0.23200649        3.76091159        0.04680085
 C            1.16114434        3.60814923       -1.81706408
 C           -0.20810380        3.87989799       -1.39302156
 C            1.67802526        1.28763273       -2.42625672
 C            1.09872508        2.51225249       -2.75590797
 C            1.71341449       -1.10446112       -2.75854002
 C            0.83789502       -2.26219614       -2.89646174
 C            1.26689389        0.15607261       -3.14063914
 C           -0.37383945       -2.12818422       -3.55233258
 C           -1.53572672       -3.03105806       -1.56789120
 C           -2.67632520       -2.97029459       -0.76563598
 C           -3.69333205       -1.97757323       -1.05995079
 C           -1.59637791       -2.50870811       -2.86282665
 C           -3.41889110        0.25853984       -1.71500266
 C           -3.50132990       -1.11382236       -2.20560587
 C           -2.62334777       -1.52778593       -3.19612967
 C           -1.92341930        2.13439813       -1.53178100
 C           -1.06772159        3.02225957       -2.17487429
 C           -0.25660787        2.52020169       -3.26518748
 C           -2.53944228        1.15496668       -2.31489755
 C            0.19533725        0.25911801       -4.03042461
 C           -0.63590481       -0.90570724       -4.28580414
 C           -2.01579410       -0.51861852       -4.03711912
 C           -0.70268614        1.39568729       -3.93065120
 C           -2.00128033        0.85448540       -3.56886674
