   70
C70 / DATE: 7/ 1/2024 / Origin: Program Fullerene / C70 from database
 C            1.58044149        0.05876365        4.49192275
 C            0.78205459       -1.14371256        4.33323770
 C            1.38946080       -1.95481735        3.29173712
 C            2.65877742        0.00050553        3.52382897
 C            2.63159476       -1.30805210        2.90226860
 C            2.55753416        1.15772122        2.65516486
 C            0.74090414        1.19032070        4.14537770
 C            1.34511818        1.87058012        3.01903675
 C           -0.59826712       -0.73709320        4.17439763
 C           -0.61679576        0.70898757        3.99962707
 C           -1.41650384       -1.50705859        3.36205157
 C            0.58018310       -2.51404586        2.29857647
 C           -0.80993886       -2.45786195        2.43647768
 C            1.13685998       -2.77763485        1.03975828
 C            3.01495167       -1.39905373        1.57511657
 C            2.47327416       -2.42870700        0.81829297
 C            2.85133445        0.97895425        1.30473915
 C            3.41221638       -0.23561148        0.91342617
 C            2.17654328        1.74735762        0.34900894
 C            0.52351292        2.32206718        1.99894982
 C            1.08514254        2.52502191        0.74557459
 C           -1.41167037        1.24591729        2.99117819
 C           -0.86558554        2.19132775        2.11047333
 C           -2.50661277       -0.85498655        2.65956021
 C           -2.54539026        0.53548456        2.60309428
 C           -1.64473573       -2.50684375        1.24714100
 C           -2.76349281       -1.60699581        1.44253971
 C            0.28812242       -2.99710736       -0.05323341
 C           -1.03113558       -2.56766768        0.00957012
 C            0.82362216       -3.28707417       -1.29871326
 C            3.06889715       -2.70630389       -0.40502733
 C            2.26201781       -3.27380527       -1.46482392
 C            3.88056642       -0.35299223       -0.38768966
 C            3.90899628       -1.67635524       -0.98910966
 C            2.41912406        1.51938300       -1.01280799
 C            3.37890216        0.57649943       -1.38503539
 C            1.54539187        2.03003651       -1.97948415
 C            0.34325653        3.20971414       -0.20130702
 C            0.56728472        2.94217447       -1.60793813
 C           -1.67943234        2.74574894        1.11769910
 C           -1.08637780        3.35860473        0.01118617
 C           -3.40915516        1.11687168        1.68703803
 C           -3.01650428        2.36280252        1.05844384
 C           -3.29915966       -0.92735681        0.35539450
 C           -3.94523726        0.27660946        0.63264729
 C           -1.59354190       -1.89831196       -1.08084807
 C           -2.77049483       -1.15523740       -0.92395490
 C            0.22852953       -2.66433043       -2.46764153
 C           -0.92633301       -1.89632198       -2.31417107
 C            2.56731453       -2.56250371       -2.69514803
 C            3.55416336       -1.54402868       -2.38996063
 C            3.22369337       -0.15110125       -2.63495050
 C            1.31093645       -2.15743446       -3.29730729
 C            1.39257580        1.36731349       -3.19304646
 C            2.14989117        0.15739071       -3.45757274
 C            1.19613777       -0.88231329       -3.83446671
 C           -1.18685874       -0.88141044       -3.23848677
 C            0.05543150        1.16488238       -3.72218507
 C           -0.11741061       -0.26836543       -3.88302596
 C           -0.72955359        2.90755387       -2.27149433
 C           -1.73230335        3.31166211       -1.29387420
 C           -1.00481343        1.89903459       -3.19920737
 C           -3.74246657        2.45092305       -0.19938523
 C           -4.35414159        1.15222296       -0.44461916
 C           -3.03317676        2.84232027       -1.40214827
 C           -3.25445370       -0.43532602       -2.01514813
 C           -2.35481612       -0.14383314       -3.11221288
 C           -2.26560208        1.30546876       -3.21767974
 C           -4.04689482        0.76190127       -1.80018298
 C           -3.34590284        1.86952792       -2.43064918
