   70
C70 / DATE: 7/ 1/2024 / Origin: Program Fullerene / C70 from database
 C            1.60566223       -0.04938803        4.64968255
 C            0.77373698       -1.22995350        4.58456693
 C            1.25677361       -2.06946925        3.49894007
 C            2.59841296       -0.15883751        3.59706490
 C            2.29715909       -1.32933232        2.80446202
 C            2.62328378        1.10884580        2.91524029
 C            0.75765784        1.08877593        4.33135938
 C            1.43182028        1.84631741        3.31205056
 C           -0.60400145       -0.78026309        4.52431180
 C           -0.56307967        0.58717840        4.03002169
 C           -1.51307896       -1.64520809        3.95042684
 C            0.30588891       -2.75818923        2.75619446
 C           -0.98388908       -2.82312132        3.28917428
 C            0.47940816       -2.87152984        1.37107310
 C            2.22138510       -1.18481217        1.42198902
 C            1.36062921       -2.01121829        0.70096437
 C            2.93740460        1.13284824        1.56491805
 C            2.75481312       -0.03906170        0.80876612
 C            2.68544200        2.34304150        0.94515445
 C            0.68475867        2.42718193        2.29445485
 C            1.44395606        3.01236704        1.29520123
 C           -1.13849174        0.88544923        2.78882789
 C           -0.54939868        1.84739066        1.94501786
 C           -2.47715857       -1.10200449        3.01714703
 C           -2.13923468        0.04238234        2.29453628
 C           -2.06812034       -3.34278947        2.48464352
 C           -3.01726369       -2.24797281        2.31493391
 C           -0.43339859       -3.62024280        0.63146256
 C           -1.75725761       -3.86316644        1.17270380
 C           -0.60807917       -3.33193864       -0.77744840
 C            1.34292693       -1.92484573       -0.69233875
 C            0.30942721       -2.51969664       -1.42307488
 C            2.74551025        0.04423678       -0.59383235
 C            2.17627909       -1.00429174       -1.33271556
 C            2.84306880        2.44172776       -0.47997452
 C            3.01802119        1.27741928       -1.21232918
 C            0.81556593        3.41373614        0.06160677
 C            1.86709108        3.41424803       -0.93686713
 C           -1.08438559        2.05468876        0.65893558
 C           -0.42015421        2.87853674       -0.26674599
 C           -2.57756390        0.18843789        0.97655978
 C           -2.21576036        1.33260511        0.26358955
 C           -3.28841462       -2.12571297        0.90266547
 C           -2.70982401       -3.27823777        0.24802566
 C           -2.01447423       -3.05198061       -1.00429759
 C           -3.12813140       -0.89788591        0.27912634
 C           -2.31996164       -1.90990010       -1.73861066
 C           -3.05404805       -0.89521362       -1.10806790
 C           -0.08981970       -1.92323689       -2.61504543
 C           -1.43382556       -1.55728956       -2.75744916
 C            2.12231336       -0.93031705       -2.72394389
 C            0.89117330       -1.31825899       -3.38715481
 C            2.97350040        1.39566611       -2.59776376
 C            2.63272143        0.24227782       -3.39717206
 C            1.51027320        3.39339700       -2.27247163
 C            2.28440622        2.54570497       -3.16449113
 C           -0.82101576        2.90798217       -1.60556310
 C            0.10806476        3.21014123       -2.60936839
 C           -2.73502104        1.50485996       -1.01925755
 C           -3.19054488        0.32904549       -1.74099704
 C           -2.04391750        2.36021462       -1.96355873
 C           -1.78986228       -0.51178636       -3.60404067
 C           -2.75652515        0.44906450       -3.11756556
 C           -2.19058278        1.77262350       -3.28493574
 C            0.53465218       -0.26889829       -4.32466816
 C            1.65201671        0.65505925       -4.39216617
 C            1.39834378        2.07042954       -4.21072589
 C            0.05172090        2.50344105       -3.88236221
 C           -0.76526098        0.22140442       -4.32497020
 C           -1.01372344        1.64732463       -4.12382478
