   70
C70 / DATE: 7/ 1/2024 / Origin: Program Fullerene / C70 from database
 C            1.45845711        0.05069861        4.44174536
 C            0.67905141       -1.13937355        4.16061668
 C            1.51982328       -2.01363131        3.38619289
 C            2.58211827        0.06594173        3.51698357
 C            2.63396642       -1.22435727        2.88277704
 C            2.44785505        1.22960851        2.67263257
 C            0.62847871        1.19351671        4.13006258
 C            1.38077730        2.04102362        3.22966577
 C           -0.57587172       -0.73464109        3.56890914
 C           -0.65874321        0.71264793        3.66618770
 C           -0.97711836       -1.35582652        2.39008933
 C            0.92726727       -2.86989747        2.47634035
 C           -0.34755410       -2.53966644        1.97248562
 C            1.82520482       -3.46508214        1.60973647
 C            2.90591539       -1.30480875        1.51901773
 C            2.79056087       -2.58121694        0.97679011
 C            2.51683888        1.09175482        1.28236865
 C            2.62129551       -0.18871643        0.70655055
 C            2.04190933        2.15654476        0.51082604
 C            0.66351169        2.81453892        2.33888612
 C            1.29637417        3.15269959        1.15391839
 C           -1.26002091        1.42143576        2.63511841
 C           -0.72306481        2.66460723        2.30421152
 C           -1.77643142       -0.65034589        1.49232015
 C           -1.98356230        0.73005165        1.66208434
 C           -2.30697148       -1.31731075        0.39049056
 C           -0.81655420       -3.18711503        0.81615757
 C           -1.80976258       -2.57514333        0.03139081
 C            1.31548774       -4.35888025        0.60807450
 C           -0.09337654       -4.27575046        0.30969986
 C            2.60797924       -2.73846095       -0.44680261
 C            2.02257597       -4.05439744       -0.62357883
 C            2.25361267       -0.37198123       -0.64009553
 C            2.11152512       -1.66001912       -1.16713367
 C            1.94483932        2.00902406       -0.87245713
 C            1.86920074        0.72403953       -1.41731098
 C            1.60971171        3.11617010       -1.64947219
 C            0.72568320        4.17775403        0.41472618
 C            0.99835188        4.25993616       -1.00348431
 C           -1.43467697        3.46755240        1.42386897
 C           -0.69144448        4.42072201        0.61190632
 C           -2.66577015        1.46822049        0.68687004
 C           -2.42486330        2.83716587        0.56786000
 C           -3.13225689       -0.62867585       -0.49512288
 C           -3.23173227        0.81423925       -0.39836609
 C           -3.09344876       -0.95918897       -1.90873481
 C           -2.12528961       -3.08146304       -1.23437936
 C           -2.50368907       -2.15351851       -2.28074795
 C           -0.19045684       -4.62646014       -1.09056743
 C            1.08046553       -4.25384563       -1.69851794
 C           -1.23372005       -4.02094049       -1.87881697
 C            1.26194286       -1.86657169       -2.26217513
 C           -1.36044026       -2.08732418       -3.17137904
 C            0.80099578       -3.14400612       -2.58136680
 C           -0.58600782       -3.29141629       -2.95855641
 C            1.16003775        0.49678993       -2.60453592
 C            0.62615955       -0.76616193       -2.82917720
 C           -0.69979318       -0.87034153       -3.27792210
 C            0.90379428        2.91216795       -2.89443504
 C            0.57170823        1.55886945       -3.27554479
 C           -0.25956015        4.54040768       -1.68164975
 C           -1.31734795        4.48547021       -0.69500954
 C           -2.29831377        3.41535625       -0.76302783
 C           -0.34171216        3.66172243       -2.82631156
 C           -3.03509546        1.36487273       -1.73345860
 C           -2.69799580        0.25567881       -2.60695016
 C           -1.48763423        0.27806687       -3.29739921
 C           -0.85878937        1.49833939       -3.50105765
 C           -2.35677618        2.57147632       -1.87221868
 C           -1.42763067        2.69742499       -2.90979777
