   70
C70 / DATE: 7/ 1/2024 / Origin: Program Fullerene / C70 from database
 C            1.22048900       -0.15414470        4.49756080
 C            2.51323496       -0.38015293        3.88221927
 C            2.48787908       -1.70668474        3.28683607
 C            0.39909286       -1.32730952        4.23754635
 C            1.12281772       -2.18317489        3.32599283
 C           -0.91212621       -0.86947776        3.84445504
 C            0.45029009        1.01792065        4.11829530
 C           -0.91244049        0.58408692        3.88017781
 C            1.00860252        1.97054558        3.28035440
 C            2.98927303        0.54969879        2.87287403
 C            2.29558396        1.72662416        2.63574986
 C            3.13565943       -1.62536502        1.99481689
 C            3.46395825       -0.22917198        1.74426139
 C            2.62761408       -2.37174774        0.93717586
 C            0.52675031       -2.55400768        2.12526233
 C            1.34737233       -2.92985346        1.05795153
 C           -1.56909909       -1.49445261        2.79023232
 C           -0.83157928       -2.28341239        1.89184200
 C           -2.73503673       -0.87668255        2.34735936
 C           -1.71963476        1.25229086        2.96212635
 C           -2.84936646        0.56034517        2.53863391
 C            0.15618566        2.65164862        2.32303133
 C           -1.15679782        2.22740293        2.11918863
 C            2.21380569        2.23491467        1.27883722
 C            0.97241974        2.97816907        1.16941213
 C            3.33344378        0.25690513        0.44221438
 C            2.62699291        1.44476982        0.20465037
 C            3.10630807       -2.04968481       -0.32713823
 C            3.47126626       -0.66715904       -0.58679182
 C            2.45239114       -2.57816286       -1.50942303
 C            0.76270733       -3.55773492       -0.03706845
 C            1.36494020       -3.42048999       -1.35371742
 C           -1.38821761       -2.62760204        0.65516091
 C           -0.67639331       -3.46496304       -0.19614113
 C           -3.25310786       -1.18019579        1.02842781
 C           -2.44856415       -1.87915672        0.14330527
 C           -3.64965037        1.09220563        1.46162386
 C           -3.96338358       -0.00603649        0.55882359
 C           -1.78748433        2.57657257        0.91547642
 C           -3.09300145        2.15871564        0.66371547
 C            0.36329013        3.05836808       -0.06914635
 C           -1.02946797        3.10297527       -0.13705795
 C            2.10206870        1.71538564       -1.06816483
 C            1.09127251        2.68006562       -1.19377897
 C            3.02392905       -0.33241721       -1.91981444
 C            2.41285774       -1.51659216       -2.50724930
 C            2.44334326        0.90140881       -2.15808385
 C            1.30581352       -1.36316478       -3.34655444
 C            0.29777145       -3.37313154       -2.33204274
 C           -0.96599714       -3.42890973       -1.61710320
 C            0.23658138       -2.25533387       -3.25705203
 C           -2.49046917       -1.56365653       -1.21944925
 C           -1.81332520       -2.36608732       -2.12316941
 C           -1.12335737       -1.73342601       -3.23111944
 C           -3.71661880        0.46172168       -0.79175851
 C           -3.49826068        1.89413208       -0.70428640
 C           -2.90092039       -0.29520352       -1.62983879
 C           -1.63597006        3.30477292       -1.37660893
 C           -2.80021811        2.50999407       -1.72510625
 C            0.60286950        3.03058327       -2.44627213
 C           -0.80237388        3.36970598       -2.56674944
 C            1.77104812        1.04495839       -3.36462858
 C            1.07059917       -0.10945748       -3.90689791
 C            0.94155543        2.20892346       -3.58502227
 C           -1.32377061       -0.37811147       -3.47680204
 C           -2.26433703        0.32832063       -2.70991605
 C           -2.41157382        1.70883269       -2.87010014
 C           -1.38489063        2.46945975       -3.55165449
 C           -0.30176605        0.30579560       -4.13349030
 C           -0.30287794        1.75409515       -4.18639262
