   70
C70 / DATE: 7/ 1/2024 / Origin: Program Fullerene / C70 from database
 C            1.59742528        0.07241326        4.58596314
 C            0.78780518       -1.12954150        4.53070272
 C            1.45430139       -2.07850060        3.65880589
 C            2.68445533       -0.08135421        3.63359915
 C            2.59609948       -1.40286756        3.05777505
 C            2.64979595        1.04985394        2.73848895
 C            0.77219615        1.17814061        4.13335097
 C            1.48915616        1.85231388        3.07433902
 C           -0.56947047       -0.73935479        4.21112386
 C           -0.54924332        0.66642692        3.83539213
 C           -1.33577379       -1.61416804        3.46155456
 C            0.68690282       -2.91760128        2.85510229
 C           -0.70873010       -2.79378946        2.87352382
 C            1.31183507       -3.49066286        1.75058345
 C            2.82310878       -1.56837728        1.69377113
 C            2.40923361       -2.76988682        1.12418771
 C            2.91728228        0.85640009        1.38871320
 C            3.01041023       -0.44608097        0.86835633
 C            2.57410864        1.89374631        0.52352461
 C            0.76965551        2.38533011        2.01529179
 C            1.47954516        2.69679660        0.86118442
 C           -1.16492089        1.06928612        2.65035812
 C           -0.59814023        2.10357474        1.89724372
 C           -2.25345943       -1.07412049        2.47549525
 C           -2.14100497        0.25660598        2.07070551
 C           -1.50202400       -3.16165450        1.70603200
 C           -2.45475428       -2.09255824        1.46356243
 C            0.51488504       -4.09404498        0.69930870
 C           -0.89804262       -3.78642636        0.62763416
 C            2.24249749       -2.86602381       -0.31413313
 C            1.11608527       -3.74042691       -0.57564801
 C            3.02189553       -0.61420768       -0.52174682
 C            2.38160604       -1.72080312       -1.08054996
 C            3.00072222        1.80801231       -0.79509343
 C            3.28007813        0.48985092       -1.32902502
 C            2.34301738        2.58819284       -1.82999877
 C            0.82670959        3.44252933       -0.10890408
 C            1.25002687        3.37056784       -1.49636818
 C           -1.28489818        2.58419271        0.77994376
 C           -0.62269804        3.45904664       -0.08228477
 C           -2.69710606        0.62885315        0.84464687
 C           -2.41247712        1.89714656        0.32633883
 C           -2.71760336       -1.67012418        0.16901235
 C           -3.19425738       -0.37478634        0.00218399
 C           -1.18301422       -3.31527235       -0.71739622
 C            0.06426552       -3.26307192       -1.45378530
 C           -2.09664867       -2.28960097       -0.92077721
 C            1.57445916       -1.55966833       -2.21125927
 C            0.31037909       -2.14900272       -2.25103483
 C            2.83078481        0.46758427       -2.70850670
 C            2.28167533        1.77504584       -3.02631456
 C            1.85878297       -0.53485595       -3.09851129
 C            0.99889837        1.57453860       -3.67334912
 C            0.75943766        0.14235121       -3.76082119
 C            0.05067967        3.33939782       -2.32596392
 C           -1.08237020        3.61929816       -1.44942488
 C           -0.07298077        2.40851518       -3.36596079
 C           -3.05861090        2.32528727       -0.83335654
 C           -2.33845411        3.15066244       -1.79146127
 C           -3.67819493       -0.03707077       -1.25285277
 C           -3.83447274        1.36117972       -1.58527574
 C           -2.03353678       -1.58914420       -2.12401212
 C           -0.77694465       -1.40588639       -2.72673261
 C           -0.54216476       -0.32301606       -3.59170169
 C           -3.06945445       -0.70179392       -2.38925050
 C           -1.34219717        1.98554462       -3.75209785
 C           -2.50671449        2.55490928       -3.10040729
 C           -3.51217938        1.51536141       -2.99270377
 C           -1.57502404        0.55618602       -3.90738425
 C           -2.91263672        0.27060289       -3.44370601
