   70
C70 / DATE: 7/ 1/2024 / Origin: Program Fullerene / C70 from database
 C            1.57347308        0.01813968        4.32285979
 C            0.75784155       -1.16661151        4.15393254
 C            1.40097904       -2.01162402        3.16774898
 C            2.59711481       -0.00626099        3.29219780
 C            2.44178014       -1.22619265        2.52828949
 C            2.53133150        1.24984748        2.58411003
 C            0.72776405        1.17057026        4.07261332
 C            1.40083122        2.00267198        3.09678478
 C           -0.60718096       -0.74942008        3.89160340
 C           -0.60405034        0.69645814        3.75211402
 C           -1.34480494       -1.50421642        2.98938408
 C            0.58539266       -2.77647851        2.35294843
 C           -0.79464047       -2.70722931        2.54315476
 C            1.05688422       -3.11372666        1.09133438
 C            2.46757578       -1.16200873        1.13433879
 C            1.86265536       -2.19108615        0.40534756
 C            2.72559274        1.25894082        1.21152877
 C            2.76538100        0.04993575        0.49869965
 C            2.36060144        2.41546001        0.53271220
 C            0.62962138        2.69544932        2.17048407
 C            1.26657392        3.14409331        1.01231680
 C           -1.25635013        1.27159286        2.66770056
 C           -0.75027891        2.45670950        2.12952744
 C           -2.29433363       -0.86239817        2.19205365
 C           -2.14402089        0.49977289        1.91074255
 C           -3.08265969       -1.63665812        1.34224322
 C           -1.60159957       -3.58128273        1.82485680
 C           -2.83974406       -3.06757716        1.27084804
 C            0.38128689       -4.11458077        0.40539711
 C           -0.98028332       -4.42141524        0.81324747
 C            0.41751969       -4.13065126       -1.03667922
 C            1.83688993       -2.11996155       -0.99485085
 C            1.08949023       -3.04662303       -1.72174576
 C            2.79460055        0.09773012       -0.89689537
 C            2.17062635       -0.91853930       -1.62981881
 C            2.76507499        2.53832416       -0.78818458
 C            3.07459038        1.31914689       -1.51025301
 C            2.05734364        3.43215971       -1.68772217
 C            0.57554768        4.00988411        0.17117413
 C            0.90387145        4.06466382       -1.24181610
 C           -1.51673352        3.12075371        1.18034906
 C           -0.86680124        4.06571399        0.28981072
 C           -2.64045250        1.00349600        0.70410671
 C           -2.45463410        2.34264349        0.39207015
 C           -3.31823099       -1.16401590       -0.01151739
 C           -2.91530378        0.12092870       -0.33363225
 C           -2.90170801       -3.46049864       -0.12744284
 C           -1.82032181       -4.39143552       -0.37313753
 C           -0.95890943       -4.16256012       -1.51224600
 C           -2.99002526       -2.24408619       -0.91999561
 C            0.16996539       -2.54503121       -2.72367975
 C           -1.15412858       -2.97383962       -2.32285695
 C           -2.08452492       -1.99919433       -1.95203053
 C            1.54666924       -0.62495628       -2.85079641
 C            0.33337608       -1.23693539       -3.13143457
 C            2.70374754        1.52344828       -2.89484513
 C            2.08496327        2.83602251       -3.01093570
 C            1.82595560        0.55932946       -3.51692302
 C            0.83806911        2.68141050       -3.73542550
 C            0.70497040        1.28164837       -4.09356008
 C           -0.34149310        3.93656124       -1.99380602
 C           -1.42909110        3.88693241       -1.03754141
 C           -2.27329050        2.70666930       -1.00310811
 C           -0.39775599        3.09656360       -3.09811119
 C           -2.38264180        0.37639729       -1.59883142
 C           -1.85703304       -0.68003191       -2.35458137
 C           -0.79621200       -0.43076762       -3.22381254
 C           -0.63915942        0.84711053       -3.74337924
 C           -2.08377472        1.69778828       -1.94863966
 C           -1.30377958        1.95292662       -3.07839512
