   70
C70 / DATE: 7/ 1/2024 / Origin: Program Fullerene / C70 from database
 C            1.23171298       -0.05815625        4.47946782
 C            2.51439603       -0.26593558        3.83642125
 C            2.46184521       -1.54268363        3.14512078
 C            0.40333949       -1.22095125        4.20377223
 C            1.12352376       -2.08040782        3.28832484
 C           -0.90831085       -0.75268952        3.80674855
 C            0.46227840        1.12860322        4.14683713
 C           -0.86960941        0.70177134        3.75389378
 C            1.06718749        2.16522417        3.45235797
 C            2.99706465        0.73041927        2.89668630
 C            2.38377647        1.97367679        2.84846380
 C            2.97871213       -1.34640196        1.80649097
 C            3.31391744        0.05744641        1.64733012
 C            2.35476931       -1.98464787        0.74842420
 C            0.46498290       -2.52992887        2.14946613
 C            1.19508726       -2.73203756        0.97518909
 C           -1.58973366       -1.42758151        2.80032312
 C           -0.92554313       -2.42758621        2.07819867
 C           -2.66048698       -0.76294253        2.21205588
 C           -1.54457643        1.35272284        2.71821582
 C           -2.61820398        0.68838559        2.13751500
 C            0.27030428        2.93214286        2.51299336
 C           -0.91975092        2.39528782        2.02177757
 C            2.38976449        2.70467169        1.59533269
 C            1.20535857        3.54775762        1.59316580
 C            3.02770374        0.68608932        0.43191543
 C            2.76878025        2.06043202        0.41649642
 C            2.58147520       -1.48635222       -0.52430676
 C            2.71251131       -0.10223833       -0.68594509
 C            2.19529250       -2.27527783       -1.59749798
 C            0.58154204       -3.35921615       -0.11208947
 C            1.23063144       -3.33162820       -1.34626250
 C           -1.57918102       -3.05908169        1.02551290
 C           -0.78947074       -3.61546132       -0.06213028
 C           -3.23993247       -1.26330583        0.97933033
 C           -2.76243641       -2.44465093        0.44251082
 C           -3.08122805        1.07849639        0.82244407
 C           -3.46952935       -0.12757117        0.10399593
 C           -1.36356617        2.76706116        0.74342547
 C           -2.42785184        2.09226335        0.13625422
 C            0.73221016        4.01547915        0.38074521
 C           -0.63899401        3.70903339        0.00772677
 C            2.48991848        2.68856257       -0.79149117
 C            1.55500806        3.80128773       -0.79536103
 C            2.27866575        0.49955114       -1.87350286
 C            2.22076756        1.88160653       -1.96643591
 C            1.81700366       -1.63210723       -2.83677192
 C            1.59349250       -0.26041108       -2.82017268
 C            0.47173630       -3.53156873       -2.56953883
 C            0.89947319       -2.51952377       -3.52315997
 C           -1.59717827       -3.52321477       -1.27084936
 C           -2.66632849       -2.57593649       -0.99940213
 C           -0.97727422       -3.50985958       -2.51180893
 C           -3.19266643       -0.22441161       -1.25853004
 C           -2.82320251       -1.45502425       -1.81615839
 C           -2.59616468        2.15921128       -1.24511585
 C           -2.97672849        0.95468051       -1.97054309
 C           -0.69535681        3.68476617       -1.44454489
 C            0.66971221        3.64175355       -1.93331136
 C            1.10487275        2.47445185       -2.67974448
 C           -1.63514669        2.87823070       -2.06227100
 C            0.49022047        0.29914946       -3.48485390
 C           -2.21742389        0.92950932       -3.21020995
 C            0.14634791        1.62737912       -3.22603217
 C           -1.20435773        1.96808333       -3.11247297
 C           -0.27998456       -1.95543928       -4.13441891
 C           -1.44545633       -2.57398689       -3.51921807
 C           -2.35169218       -1.50510190       -3.12702932
 C           -0.47150884       -0.52028358       -4.07647230
 C           -1.86651079       -0.29158425       -3.75727685
