   70
C70 / DATE: 7/ 1/2024 / Origin: Program Fullerene / C70 from database
 C            1.44875180       -0.32190344        5.45976316
 C            0.56542428       -1.44128399        5.21734973
 C            1.15428821       -2.24244621        4.15757982
 C            2.57055169       -0.44292239        4.54211135
 C            2.27447654       -1.51377778        3.60671127
 C            2.81086302        0.87508168        4.01480712
 C            0.73032559        0.88760663        5.09357104
 C            1.66297932        1.70858738        4.36708410
 C           -0.68392198       -0.91005081        4.69819819
 C           -0.50421484        0.49903455        4.43164165
 C            0.08445258       -2.58091660        3.25573144
 C           -1.05604922       -1.74606222        3.58857850
 C            0.36726264       -2.70389374        1.90388340
 C            2.28876813       -1.26550223        2.22757580
 C            1.49599624       -2.06208352        1.38169907
 C            3.00578147        1.01951167        2.58683728
 C            2.83629579       -0.07124526        1.73421015
 C            1.21477694        2.32848446        3.14072494
 C            2.33567399        2.24534526        2.23243110
 C           -0.79159904        0.97798624        3.14457585
 C           -0.05501738        2.04908427        2.62254587
 C           -1.71710864       -1.17190380        2.51471933
 C           -1.58826804        0.20329352        2.28352480
 C           -0.73524724       -2.77843270        1.07811131
 C           -1.82922049       -1.97528271        1.40045609
 C           -0.52072422       -3.05836707       -0.25671341
 C            1.56433824       -1.86650597       -0.00886433
 C            0.61114524       -2.48122985       -0.84766489
 C            2.71438808        0.20960383        0.37268395
 C            2.33371674       -0.80817401       -0.49528055
 C            2.04977309        2.44789496        0.90295492
 C            2.55424967        1.54490203       -0.02655008
 C           -0.28117205        2.45466885        1.30511330
 C            0.81162728        2.99039169        0.62354595
 C           -1.91140337        0.69504971        1.00457648
 C           -1.32028879        1.88099304        0.55976277
 C           -2.61300136       -1.52109028        0.36179013
 C           -2.54947119       -0.15072902        0.07837044
 C           -1.66657681       -3.25480840       -1.01162548
 C           -2.80626472       -2.42617657       -0.66868987
 C           -1.56069078       -3.29353749       -2.44492132
 C            0.64601479       -2.25232020       -2.23640312
 C           -0.41664467       -2.65109762       -3.04741710
 C            2.38209201       -0.55997662       -1.85855244
 C            1.52735672       -1.31321837       -2.75364331
 C            2.32630943        1.84291647       -1.37317277
 C            2.40892585        0.81871466       -2.31568882
 C            0.63216698        3.45349466       -0.65896745
 C            1.57874397        2.98934255       -1.65782750
 C           -1.51026443        2.30638249       -0.76304628
 C           -0.67387961        3.31388937       -1.25026025
 C           -2.79745215        0.30595743       -1.22621356
 C           -2.25394020        1.51958166       -1.65422929
 C           -3.41453364       -1.97285038       -1.88941708
 C           -2.76529621       -2.68303727       -2.97947887
 C           -3.35724663       -0.55838485       -2.17710185
 C           -0.91166623       -1.73646598       -4.06917654
 C           -2.35940285       -1.69363723       -3.95395295
 C           -2.97171261       -0.43664536       -3.57487505
 C            1.06889712       -0.41754367       -3.80709499
 C            1.65584998        0.89222284       -3.56284677
 C           -0.23700347       -0.53835306       -4.28698199
 C            0.92860804        3.14408482       -2.94413042
 C           -0.46423969        3.47814625       -2.67479196
 C            0.94600822        2.04183573       -3.88208589
 C           -2.26077270        1.81094630       -3.02395419
 C           -2.33144113        0.71880839       -3.96853947
 C           -0.99626971        0.60771235       -4.54162040
 C           -1.28099959        2.71791961       -3.58070989
 C           -0.39387401        1.92238131       -4.42073018
