   70
C70 / DATE: 7/ 1/2024 / Origin: Program Fullerene / C70 from database
 C            1.24612417        0.14556611        4.69258130
 C            2.45072132        0.01662295        3.90006148
 C            2.46489109       -1.32726711        3.35061238
 C            0.40923015       -1.01261337        4.41011205
 C            1.13130668       -1.86895690        3.48276994
 C           -0.90446286       -0.52677516        4.02595514
 C            0.43179029        1.32877308        4.51324010
 C           -0.93913133        0.89263795        4.30341822
 C            0.74881779        2.24522793        3.43148857
 C            2.67271643        0.93460288        2.79292568
 C            1.72036589        1.90146095        2.48675535
 C            3.02788009       -1.24200288        2.02192003
 C            3.25007250        0.15798207        1.71724513
 C            2.49394321       -2.02624811        1.00955544
 C            0.48228031       -2.31131171        2.33364797
 C            1.22990290       -2.61105648        1.18673958
 C           -1.45976940       -0.98546804        2.83836883
 C           -0.88731435       -2.08908832        2.21221950
 C           -2.33040150       -0.16475345        2.11423146
 C           -1.52237532        1.77237038        3.30846700
 C           -0.52235121        2.77285366        2.97644281
 C           -2.27731082        1.22736889        2.27421779
 C           -0.57890096        3.36091088        1.72496079
 C            1.57634584        2.32975281        1.16276457
 C            0.58299605        3.25555566        0.85934397
 C            3.05114004        0.55516083        0.40223870
 C            2.23056778        1.65496601        0.12192935
 C            2.91176107       -1.73873050       -0.28337787
 C            3.23064940       -0.40661517       -0.58689542
 C            2.52635679       -2.61915288       -1.28273545
 C            0.58267538       -3.19555020        0.08685775
 C            1.25408088       -3.29308054       -1.13337466
 C           -1.56911089       -2.68430198        1.16628929
 C           -0.80971283       -3.27513936        0.07887418
 C           -3.02288179       -0.70550917        1.02723874
 C           -2.71459767       -1.99671321        0.59535470
 C           -3.73458736        0.14518810        0.18620762
 C           -2.58912267        2.04974738        1.19279546
 C           -1.74610398        3.11690884        0.89375703
 C           -3.41898915        1.56042502        0.19436357
 C            0.11399549        3.37657104       -0.50655376
 C           -1.34236127        3.33261171       -0.48425065
 C            1.91954268        1.95199472       -1.21641368
 C            0.78997799        2.71881323       -1.52258456
 C            3.27897521        0.03161693       -1.90270589
 C            2.56693189        1.25041678       -2.23762484
 C            2.68184938       -2.25511250       -2.67598294
 C            3.10587774       -0.91005756       -2.99063416
 C            0.50924703       -3.07939292       -2.36657169
 C            1.40675530       -2.48991770       -3.33568061
 C           -1.52624825       -3.00500372       -1.15807476
 C           -2.76376282       -2.32727617       -0.82242001
 C           -0.80048812       -2.62467742       -2.28155938
 C           -3.97184808       -0.24441503       -1.19370665
 C           -3.29636349       -1.41567901       -1.71740751
 C           -3.18603514        1.96823355       -1.18366304
 C           -2.02228330        2.66794527       -1.50194271
 C           -3.63442578        0.88581563       -2.04173500
 C            0.10761424        2.50121548       -2.71572530
 C           -1.34294898        2.38564175       -2.68798190
 C            1.88700517        1.02857980       -3.50597500
 C            2.13512899       -0.34491000       -3.90920157
 C            1.00781529       -1.26025800       -3.98249157
 C            0.60866253        1.53389616       -3.67184743
 C           -1.20489291       -1.50420823       -3.02453729
 C           -2.49809305       -1.00135105       -2.86053598
 C           -2.75373374        0.41251993       -3.09003654
 C           -1.70715659        1.22431796       -3.49219837
 C           -0.27110592       -0.75860669       -3.76020895
 C           -0.47712340        0.60692821       -3.94931633
