   70
C70 / DATE: 7/ 1/2024 / Origin: Program Fullerene / C70 from database
 C            1.36396482       -0.22170767        4.42397127
 C            2.60566277       -0.53852104        3.75941738
 C            2.51209557       -1.89806267        3.24798164
 C            0.51742656       -1.40493976        4.37819426
 C            1.19636417       -2.41087404        3.57987223
 C           -0.81606103       -0.97165791        3.98916889
 C            0.57697338        0.89296410        3.93124362
 C           -0.81126884        0.47964641        4.01510810
 C            1.00536428        1.61584864        2.81288416
 C            3.03636599        0.30480731        2.66506522
 C            2.30672982        1.44092926        2.31765628
 C            2.93456317       -1.87632329        1.85535144
 C            3.50253925       -0.56706611        1.60194004
 C            2.12863548       -2.45643004        0.88014520
 C            0.47803560       -3.08960506        2.60708048
 C            1.03579103       -3.23225526        1.26873197
 C           -1.47949946       -1.63209630        2.95597519
 C           -0.94073011       -2.81609021        2.45028729
 C           -2.48270429       -0.96382093        2.24490392
 C           -1.74376149        1.15876246        3.25494297
 C           -2.69165759        0.39784078        2.45822978
 C            0.05868691        2.34520141        2.07865640
 C           -1.28962821        2.25880860        2.42690183
 C            0.42349141        3.00910001        0.90328003
 C            2.67818792        2.07750665        1.13997565
 C            1.73022668        2.92394469        0.44510067
 C            3.49314067       -0.07508118        0.30490568
 C            3.39270547        1.30397786        0.13702057
 C            2.19941984       -1.97502645       -0.43065074
 C            3.05998690       -0.90757121       -0.72522175
 C            1.23452300       -2.37838894       -1.36153873
 C           -0.08033176       -3.40126453        0.35320723
 C           -1.30733524       -3.26523750        1.12064796
 C            0.00184649       -2.83991680       -0.91515632
 C           -3.05694571       -1.56017579        1.12385524
 C           -2.41665266       -2.71191319        0.51001359
 C           -3.56488316       -0.71859736        0.04903565
 C           -3.09491716        1.24288941        1.34242494
 C           -2.30490827        2.46120826        1.41213783
 C           -3.36275690        0.65912373        0.10605648
 C           -0.55871268        3.44298139        0.01313313
 C           -1.95348803        3.10137461        0.23956725
 C           -0.30784200        3.35280412       -1.41826614
 C            1.97428676        2.79445413       -0.98591290
 C            3.06037856        1.84751392       -1.16936659
 C            0.88998365        2.79761228       -1.86242717
 C            3.14974799       -0.43409057       -2.03013348
 C            3.03526629        0.99689184       -2.26127195
 C            1.36870828       -2.03270136       -2.69776754
 C            2.41408741       -1.10873425       -3.07918894
 C            0.17367769       -1.69255963       -3.44921208
 C           -1.16386047       -2.47336247       -1.59642652
 C           -2.38437768       -2.47766554       -0.92207808
 C           -3.34785660       -1.43106781       -1.19863647
 C           -1.07304936       -1.82953841       -2.83563145
 C           -3.21596760       -0.70779233       -2.36959163
 C           -2.14533270       -1.05761968       -3.28779096
 C           -3.13029745        1.37762719       -1.07210082
 C           -2.49617061        2.61982682       -1.01723528
 C           -1.55990566        3.00260231       -2.06363591
 C           -3.26677601        0.74184142       -2.30503911
 C           -1.88064204        0.11897570       -4.09499638
 C           -1.53361873        2.28285293       -3.24578667
 C           -2.53103037        1.24901550       -3.45227562
 C            0.91047286        1.99386660       -3.01051592
 C            2.02074538        1.19258345       -3.27945459
 C            1.82104832       -0.09017768       -3.92841448
 C            0.46723168       -0.50157689       -4.24010494
 C           -0.26224805        1.78224114       -3.74159971
 C           -0.50314411        0.48188492       -4.35664259
