   70
C70 / DATE: 7/ 1/2024 / Origin: Program Fullerene / C70 from database
 C            1.54237520       -0.09091801        5.02805908
 C            0.77158666       -1.31834414        4.93974012
 C            1.65385119       -2.33659057        4.41270067
 C            2.72669762       -0.26348396        4.20414436
 C            2.81972558       -1.66306512        3.85497243
 C            2.65765251        0.70833534        3.13292055
 C            0.74874109        0.97278401        4.43689786
 C            1.52579348        1.58051990        3.38038726
 C           -0.46397989       -1.01654203        4.23107234
 C           -0.53890216        0.42679903        4.07875763
 C           -0.89276386       -1.82472876        3.17074050
 C            1.13941666       -3.22426535        3.39362234
 C           -0.18450084       -2.98251333        2.84271031
 C            2.90319239       -2.02580205        2.45064006
 C            2.07146265       -3.19340743        2.27704597
 C            2.88770950        0.31704819        1.81852599
 C            2.85699829       -1.03809655        1.46692476
 C            2.57679464        1.23826819        0.83089813
 C            0.85199088        2.07319164        2.26722847
 C            1.56358937        2.16905763        1.07900979
 C           -1.15857312        0.91558854        2.94125865
 C           -0.53303418        1.91429985        2.18163369
 C           -1.76763301       -1.27750311        2.22199265
 C           -2.06630173        0.08293411        2.30730534
 C           -1.98508619       -1.95169706        1.01176561
 C           -0.10729579       -3.37624335        1.45341096
 C            1.28720339       -3.29188396        1.06275292
 C           -1.03219874       -2.86726724        0.56261639
 C            2.46064035       -1.38975988        0.16689455
 C            1.59888507       -2.47708186       -0.02457692
 C            2.83039022        0.88475078       -0.48195652
 C            2.57479981       -0.43799646       -0.84867181
 C            2.70845479        1.88825239       -1.42986690
 C            0.96196858        2.80456672       -0.00359768
 C            1.69861028        2.90009734       -1.18473720
 C           -1.18619707        2.36816621        1.02899983
 C           -0.43505076        2.87918146       -0.03985362
 C           -2.90214058        0.65865969        1.36973509
 C           -2.49182527        1.92858034        0.80151799
 C           -2.87700109       -1.41907533        0.07072046
 C           -3.42331453       -0.15531515        0.29164305
 C           -2.86231719       -1.93920827       -1.22536886
 C           -0.65061664       -2.80262153       -0.76779693
 C            0.65945783       -2.41301291       -1.05684366
 C           -1.65059094       -2.58552652       -1.69364960
 C            1.99105212       -0.70108006       -2.09089210
 C            0.91129868       -1.58858728       -2.15639109
 C            2.64870258        1.52201226       -2.82722834
 C            2.25110038        0.16849085       -3.14675001
 C            1.03612488        3.18273909       -2.44532230
 C            1.71982786        2.42739836       -3.48179491
 C           -1.08254048        3.25099197       -1.21988728
 C           -0.34594943        3.29885546       -2.47112265
 C           -3.08035953        2.02657152       -0.52228148
 C           -3.69282416        0.74148780       -0.82685842
 C           -2.40489808        2.72532530       -1.51063527
 C           -3.39548943       -1.15795072       -2.32848641
 C           -3.66701011        0.25003816       -2.12489006
 C           -1.31220584       -2.02199689       -2.98135263
 C           -0.04654714       -1.48077661       -3.17663405
 C           -2.47245791       -1.28037318       -3.44497523
 C            1.31982046        0.24759344       -4.25104321
 C            0.94028104        1.64446268       -4.41935006
 C            0.10522658       -0.53223249       -4.18428916
 C           -1.12826472        2.59274663       -3.48054039
 C           -2.40096046        2.22715022       -2.87806790
 C           -2.97890048        0.99460886       -3.17028929
 C           -2.26920018        0.04003130       -4.01205194
 C           -0.50923717        1.71603308       -4.36755108
 C           -1.00525387        0.35732883       -4.49364085
