   70
C70 / DATE: 7/ 1/2024 / Origin: Program Fullerene / C70 from database
 C            1.06900395        0.10680477        4.46022948
 C            2.37984194       -0.18082502        3.92239095
 C            2.42105141       -1.60383491        3.64871163
 C            0.25545771       -1.09301562        4.31151005
 C            1.04933122       -2.07507325        3.61325104
 C           -1.00598389       -0.69585074        3.73414752
 C            0.31819329        1.20360931        3.88763742
 C           -1.05421361        0.75627972        3.74138075
 C            0.87139654        1.96319405        2.86392921
 C            2.79659231        0.50281852        2.71208922
 C            1.96281847        1.46058751        2.14172387
 C            3.22673665       -1.79773751        2.46327125
 C            3.42273629       -0.48542045        1.85088139
 C            2.89069037       -2.85701745        1.63796320
 C            0.57398268       -2.63609971        2.42772215
 C            1.49934490       -3.30304537        1.63131023
 C           -1.49070513       -1.36354575        2.61827057
 C           -0.62294382       -2.16574181        1.85601505
 C           -2.61061382       -0.80791212        2.02156090
 C           -1.86843266        1.39866756        2.80986616
 C           -2.81254856        0.63214147        2.12757098
 C            0.02258019        2.86937591        2.24605539
 C           -1.40711549        2.58393601        2.23356429
 C            0.37479139        3.40668852        0.94785535
 C            2.05988987        1.70732014        0.77055295
 C            1.40049257        2.80857488        0.22296202
 C            3.30950906       -0.35317908        0.46504053
 C            2.65667047        0.76035352       -0.07250381
 C            3.32637691       -2.79257652        0.26180536
 C            3.49300718       -1.48197483       -0.33581333
 C            1.15284051       -3.65885659        0.27382804
 C            2.35286689       -3.51212277       -0.53181877
 C           -0.92343360       -2.44874533        0.50592217
 C           -0.05649200       -3.23629496       -0.26320494
 C           -2.98776493       -1.20954838        0.68769038
 C           -2.08948976       -1.93396280       -0.08366584
 C           -3.34395488        1.09229500        0.85496416
 C           -3.69727791       -0.09103401        0.09231338
 C           -1.93024808        3.02455768        0.94801075
 C           -0.86945257        3.75694813        0.28041654
 C           -2.75231425        2.17687641        0.21250907
 C           -0.88391397        3.85346030       -1.10063002
 C            1.47850633        3.04049517       -1.14654448
 C            0.37260986        3.70825295       -1.81246568
 C            2.40290291        0.80052464       -1.44387752
 C            1.93739647        1.97336722       -2.01524788
 C            2.88448125       -1.53062702       -1.65697926
 C            2.23903041       -2.82772999       -1.80347649
 C            2.24929869       -0.39190704       -2.14353239
 C           -0.16214893       -3.20924222       -1.65122919
 C            1.01470156       -2.87580873       -2.44298262
 C           -2.25097220       -1.94453359       -1.47393322
 C           -1.29505076       -2.55716681       -2.27300235
 C           -3.75355802       -0.00204033       -1.28505250
 C           -3.14375576       -1.05624240       -2.07465377
 C           -2.75864862        2.24643222       -1.18503446
 C           -1.89920079        3.12851783       -1.84720387
 C           -3.41807637        1.26137744       -1.91954542
 C            0.10698836        3.00567437       -3.05536010
 C            1.02047875        1.88063682       -3.13722558
 C           -1.31730335        2.74996416       -3.12961528
 C            1.20928889       -0.51560074       -3.07290187
 C            0.63644120       -1.76583858       -3.29180026
 C           -0.79757845       -1.86048461       -3.45252602
 C            0.52997818        0.62920513       -3.50246911
 C           -2.79963840       -0.48169040       -3.36386007
 C           -2.96269992        0.95898531       -3.26503549
 C           -1.74384163        1.58213496       -3.74291542
 C           -1.48301983       -0.74870664       -3.91145587
 C           -0.77591369        0.52097645       -3.99736053
