   70
C70 / DATE: 7/ 1/2024 / Origin: Program Fullerene / C70 from database
 C            1.50050399       -0.27688202        5.19222797
 C            0.64350395       -1.45038831        5.17983364
 C            1.18213799       -2.38781200        4.21086553
 C            2.58982025       -0.51592408        4.26448196
 C            2.45265266       -1.86400740        3.74230026
 C            2.62430107        0.59067632        3.32172557
 C            0.73148045        0.84539900        4.68025486
 C            1.45552752        1.41973553        3.56474232
 C           -0.65979815       -1.03764324        4.69883301
 C           -0.62084508        0.39281115        4.44351659
 C            0.14214802       -2.67747176        3.23120218
 C           -1.03398191       -1.90918006        3.59337272
 C            0.49353080       -2.77074755        1.88713912
 C            2.79338874       -2.08074361        2.41748773
 C            1.84538714       -2.76649575        1.55484682
 C            2.98203642        0.33395066        2.00283605
 C            3.30948116       -0.96837557        1.63585214
 C            2.52732340        1.19673633        1.01035005
 C            0.73530571        1.87741838        2.46499260
 C            1.39345210        1.98078063        1.24750921
 C           -1.27667064        0.84000334        3.30604661
 C           -0.65794093        1.77186189        2.46079760
 C           -1.79826039       -1.35374971        2.57515836
 C           -2.19184406       -0.03060135        2.73521035
 C           -0.44954888       -2.44534739        0.90445955
 C           -1.65526316       -1.84008944        1.27163427
 C           -0.08042270       -2.47354424       -0.44085492
 C            2.23526167       -2.45897504        0.19582192
 C            3.17497775       -1.35444818        0.24124697
 C            1.27203771       -2.42908127       -0.79542972
 C            2.91217573        0.95970726       -0.30552209
 C            3.04689084       -0.36625614       -0.72915044
 C            2.61303816        1.93921210       -1.24317421
 C            0.72205147        2.54762566        0.16878080
 C            1.43653967        2.75781246       -1.00546616
 C           -1.37114131        2.18392806        1.32466299
 C           -0.67596503        2.49821883        0.14044391
 C           -3.05541770        0.49806597        1.80401561
 C           -2.70542184        1.79016251        1.25357142
 C           -2.50343004       -1.32186226        0.28292887
 C           -3.40237579       -0.32827243        0.67057696
 C           -1.03739707       -2.21283278       -1.42132834
 C           -2.18628254       -1.48576080       -1.07677420
 C           -0.63286455       -2.29859579       -2.75170005
 C            1.62109461       -1.82802243       -1.99849055
 C            2.50240775       -0.73993674       -1.96206160
 C            0.75007634       -1.99470473       -3.06495284
 C            2.63598075        1.58838104       -2.64916742
 C            2.51217023        0.18944916       -2.99798467
 C            0.72719535        2.89282167       -2.26070796
 C            1.55595820        2.30568939       -3.29979604
 C           -1.35798556        2.61346815       -1.08865746
 C           -0.64284823        2.67313273       -2.28907545
 C           -3.42944848        1.90962066        0.01185712
 C           -3.93881470        0.58132469       -0.31247037
 C           -2.73043487        2.39051382       -1.15486370
 C           -2.91690631       -0.78655622       -2.06154963
 C           -3.64326665        0.34296391       -1.70036623
 C           -3.25754915        1.62368340       -2.26517902
 C           -1.45577769       -1.72799140       -3.79081203
 C           -2.55586432       -0.87865676       -3.40285629
 C            0.76492533       -1.05785758       -4.17253438
 C            1.54296748        0.08890311       -4.07509621
 C            0.93750495        1.40627508       -4.25518241
 C           -0.59076629       -0.96897264       -4.68474871
 C           -1.23441292        2.23238500       -3.47943766
 C           -2.55198016        1.61669024       -3.45456566
 C           -2.45055986        0.35472537       -4.16835166
 C           -0.43181324        1.51311145       -4.46011781
 C           -1.18193516        0.34054169       -4.87315773
