   70
C70 / DATE: 7/ 1/2024 / Origin: Program Fullerene / C70 from database
 C            1.47701382        0.08316706        4.86178343
 C            0.69141572       -1.12451875        4.67171670
 C            1.54696875       -2.09915675        4.03869836
 C            2.67175531       -0.03999419        4.04591475
 C            2.79511241       -1.43344499        3.68708297
 C            2.59291319        0.94580589        2.97797618
 C            0.70522301        1.18974893        4.33505781
 C            1.48014865        1.82477064        3.28330657
 C           -0.54235702       -0.75142474        4.00554199
 C           -0.61523213        0.69598399        3.98353362
 C           -0.96628346       -1.44191646        2.87471561
 C            1.06710325       -2.77126724        2.84610728
 C           -0.18955571       -2.47880857        2.32960385
 C            3.07125424       -1.75572218        2.30504744
 C            2.17691033       -2.83318838        1.92249396
 C            2.79281550        0.55028675        1.65383093
 C            3.28803108       -0.73488977        1.38374876
 C            2.21152857        1.31048010        0.62559751
 C            0.76655716        2.37626799        2.23096861
 C            1.29918791        2.32359691        0.94136387
 C           -1.24595832        1.30634241        2.90535694
 C           -0.61665425        2.41848122        2.35851543
 C           -1.95529621       -0.85148346        2.08825652
 C           -2.06824574        0.54391662        2.06660469
 C           -2.52298465       -1.60581323        1.07264126
 C           -0.47375768       -2.92394780        1.03943319
 C           -1.76066902       -2.72297190        0.55044112
 C            1.90620728       -2.98879052        0.56802009
 C            0.58406057       -3.19900836        0.15784927
 C            3.41948185       -1.13608659        0.06361643
 C            2.79700057       -2.39288661       -0.32246579
 C            2.42914029        0.96231937       -0.70784587
 C            3.15262394       -0.19025021       -0.99631414
 C            1.68997350        1.57593674       -1.72082652
 C            0.59279409        2.97441573       -0.07706629
 C            0.79663620        2.60333973       -1.41349093
 C           -1.31520648        3.15560867        1.42682131
 C           -0.57323004        3.65280425        0.29026596
 C           -2.67618462        1.18781936        0.97835095
 C           -2.52126173        2.56872461        0.88088773
 C           -3.15729875       -0.93604537       -0.04517937
 C           -3.06809609        0.44809139       -0.14691488
 C           -2.03273018       -2.82833163       -0.87049793
 C           -2.95669868       -1.76211789       -1.22406486
 C            0.33002927       -3.38679721       -1.20126139
 C           -1.00384499       -3.17065038       -1.73444721
 C            2.46252196       -2.30629656       -1.73194809
 C            2.82175851       -0.96810021       -2.17804216
 C            1.28623050       -2.89167247       -2.17933403
 C            1.68295361        1.01862475       -3.00216448
 C            2.09233376       -0.36007630       -3.18522646
 C            0.54717192        1.24112091       -3.87671450
 C           -0.02333290        3.11253263       -2.42712616
 C           -0.31111348        2.28916969       -3.58764404
 C           -1.56795699        4.00214363       -0.70108233
 C           -2.76648798        3.23632614       -0.38004035
 C           -1.26168978        3.78205226       -2.09223733
 C           -3.18215058        1.05383518       -1.40851680
 C           -1.75100619        2.06809783       -3.61184705
 C           -3.09159557        2.43616077       -1.53672802
 C           -2.34068892        2.98602844       -2.65271883
 C           -2.86787436       -1.15343055       -2.46651583
 C           -3.05898925        0.28161927       -2.56351409
 C           -2.23861551        0.76810619       -3.66326565
 C           -0.87346903       -2.49182373       -3.01503515
 C            0.54272052       -2.27457042       -3.26544706
 C            0.97708174       -1.06560276       -3.80024984
 C            0.00546943       -0.06655420       -4.21976526
 C           -1.79933469       -1.52224379       -3.38341612
 C           -1.35427746       -0.31384189       -4.06219627
