   70
C70 / DATE: 7/ 1/2024 / Origin: Program Fullerene / C70 from database
 C            1.58832441       -0.08097498        4.71582070
 C            0.77914281       -1.26822754        4.52558052
 C            1.39637427       -2.08137409        3.49076764
 C            2.71094256       -0.16521751        3.80235667
 C            2.56636144       -1.37241599        3.00489505
 C            2.79354227        1.10039769        3.10635634
 C            0.78646683        1.06320965        4.31409099
 C            1.50788787        1.76326853        3.27157429
 C           -0.58997040       -0.83727312        4.32737980
 C           -0.54904180        0.58612346        4.02354835
 C           -1.41229829       -1.64874232        3.55997625
 C            0.57286734       -2.71599398        2.57116449
 C           -0.80495960       -2.72826592        2.79715222
 C            1.04400635       -2.92812371        1.27847254
 C            2.79685992       -1.29447755        1.63091714
 C            2.03352100       -2.07969357        0.75854484
 C            3.35514580        1.09564224        1.84345862
 C            3.46645883       -0.17492871        1.13504071
 C            2.85916120        2.04845109        0.87517378
 C            0.81900042        2.18644734        2.13459637
 C            1.55033294        2.51599150        0.99370274
 C           -1.19818509        1.04354356        2.88094598
 C           -0.55451418        1.94823793        2.01922270
 C           -2.39486294       -1.02708484        2.68981788
 C           -2.31377567        0.33715537        2.43079738
 C           -1.70816791       -3.04154438        1.69992500
 C           -2.64088011       -1.93351596        1.57766801
 C            0.25672521       -3.68700682        0.41913039
 C           -1.18750368       -3.60604956        0.54996238
 C            0.55945110       -3.70575250       -0.99416781
 C            2.13827487       -1.87786345       -0.62611381
 C            1.51253979       -2.74584918       -1.50728195
 C            3.41179234        0.12550485       -0.28713761
 C            3.31610479        1.56973687       -0.41126265
 C            2.64297790       -0.67809529       -1.12087495
 C            2.72217711        2.09587680       -1.54023787
 C            0.88342640        2.94090588       -0.15616984
 C            1.59379415        2.98857137       -1.35747523
 C           -1.23398623        2.42303348        0.89516866
 C           -0.51458723        2.96478282       -0.17595956
 C           -3.02801887        0.83213186        1.35187011
 C           -2.55721816        2.03670350        0.70517020
 C           -2.92918115       -1.38798658        0.32613082
 C           -3.42299354       -0.09169980        0.29804642
 C           -1.70170770       -3.16729433       -0.73321550
 C           -0.69335558       -3.51009214       -1.70777786
 C           -2.34793450       -1.93352641       -0.82622448
 C            0.96439414       -2.21092107       -2.73781518
 C           -0.44246357       -2.57821434       -2.77569100
 C            2.16731068       -0.16073496       -2.33414679
 C            2.35315779        1.19394334       -2.61351443
 C            1.31192510       -0.92299318       -3.14193292
 C            0.88136529        3.01947373       -2.62018850
 C            1.37536980        1.90020842       -3.41976928
 C           -1.18538307        3.32564967       -1.34979104
 C           -0.46944173        3.33204238       -2.61553940
 C           -3.11904411        2.03085837       -0.62987862
 C           -3.43708103        0.64466684       -0.94539948
 C           -2.52237995        2.81076816       -1.60270178
 C           -2.23637787       -1.16494657       -2.00389004
 C           -1.36258057       -1.57391518       -3.03211959
 C           -2.90656773        0.06940268       -2.09465232
 C            0.43696859       -0.27774339       -4.02136577
 C            0.50140482        1.16220826       -4.20294993
 C           -0.96667198       -0.65547150       -3.99134944
 C           -1.33767429        2.75787045       -3.62763967
 C           -2.55979020        2.33035598       -2.97109118
 C           -2.71327619        0.90196277       -3.19678063
 C           -0.85265219        1.64343229       -4.41870160
 C           -1.76102902        0.52545131       -4.21361827
