   70
C70 / DATE: 7/ 1/2024 / Origin: Program Fullerene / C70 from database
 C            1.30830730       -0.03275765        4.33886842
 C            2.63636889       -0.20548042        3.77181951
 C            2.69966241       -1.54471935        3.21395467
 C            0.51090279       -1.19437790        3.97181194
 C            1.34410011       -2.07971506        3.19693569
 C           -0.71848795       -0.72357999        3.38115484
 C            0.53675375        1.15644706        4.01565016
 C           -0.75754065        0.71875096        3.52827323
 C            1.15943366        2.23339312        3.40429828
 C            3.23606593        0.84986662        3.09254745
 C            2.56402000        2.13765114        3.03647803
 C            3.84501881        0.61891175        1.78950079
 C            3.52940571       -1.79390331        2.12879853
 C            4.01521631       -0.67589589        1.32935831
 C            3.14392715       -2.84315665        1.20506952
 C            0.84822045       -2.63898143        2.02130179
 C            1.75692201       -3.27787196        1.19081200
 C           -1.16875231       -1.27364066        2.18269363
 C           -0.38842276       -2.21852827        1.49682595
 C           -2.15820973       -0.57823317        1.49054805
 C           -1.41832547        1.44204093        2.54561169
 C           -2.38482371        0.76870030        1.80949084
 C            0.46990605        2.93909319        2.33807806
 C           -0.82596071        2.57647295        1.97426368
 C            2.70413585        2.64741974        1.68219664
 C            3.30785732        1.60977571        0.87546124
 C            1.42076897        3.16652536        1.27029833
 C            2.65496265        1.19405821       -0.28573873
 C            3.69775817       -0.96301325       -0.05943831
 C            3.46396675       -2.38266498       -0.13531982
 C            2.85743012       -0.10045036       -0.76955977
 C            1.40970815       -3.50382871       -0.18822362
 C            2.41137234       -2.83686440       -1.00383175
 C           -0.79975279       -2.65552973        0.22309144
 C            0.09157814       -3.37546911       -0.59387589
 C           -2.68142495       -1.12422361        0.31945170
 C           -1.99934863       -2.15989363       -0.32316407
 C           -3.73617059       -0.48142536       -0.32999273
 C           -3.20674394        1.53853145        1.00414626
 C           -4.04536935        0.88597575        0.02587608
 C           -1.29238599        3.00412203        0.72341520
 C           -2.61392007        2.70910081        0.39229954
 C            0.98044016        2.93112342       -0.02101844
 C            1.62831819        1.97407547       -0.81576981
 C           -0.35101785        3.21921948       -0.29237863
 C            1.04460278        1.60047906       -2.02463356
 C            2.03625675       -0.60200443       -1.79777193
 C            1.94571332       -1.99156093       -2.00058358
 C            1.13080932        0.26246727       -2.44228127
 C           -0.07639911       -3.31432475       -1.96971933
 C            0.86597722       -2.49120248       -2.70982580
 C           -2.37779317       -2.51421064       -1.62148954
 C           -1.39044125       -3.07976616       -2.50528643
 C           -3.85845276       -0.58349468       -1.77235258
 C           -3.15700999       -1.58492457       -2.42223971
 C           -4.01444579        1.68331228       -1.18938190
 C           -3.05438903        2.75864368       -0.99110579
 C           -3.85123390        0.77074627       -2.30908472
 C           -0.73680580        3.21797789       -1.62527193
 C            0.06624115        2.44179234       -2.55054977
 C           -2.13138905        3.04440618       -1.98493092
 C           -2.97641917        1.10125517       -3.33876052
 C           -0.80391403        1.96622065       -3.59870711
 C           -2.17237667        2.30898607       -3.23851138
 C            0.24490932       -0.24077441       -3.41339852
 C            0.09956215       -1.61279999       -3.55503241
 C           -1.24065337       -2.17076535       -3.62886462
 C           -2.36973071       -1.26113218       -3.60561883
 C           -0.76857350        0.56352055       -3.92988805
 C           -2.13991539        0.07010259       -3.92677973
