   70
C70 / DATE: 7/ 1/2024 / Origin: Program Fullerene / C70 from database
 C            1.52822975        0.10351926        4.90542311
 C            0.73476458       -1.10801789        4.80118882
 C            1.56062483       -2.10954721        4.16696395
 C            2.69556880       -0.06223876        4.05631401
 C            2.75441549       -1.44978558        3.65907888
 C            2.63567884        0.94908218        3.01876195
 C            0.74135749        1.19174869        4.35759035
 C            1.51216698        1.82034620        3.29903875
 C           -0.53341889       -0.76528685        4.17792715
 C           -0.57197520        0.67725230        4.01525259
 C           -1.03817348       -1.56128441        3.15118996
 C            0.98844739       -2.86432347        3.07361963
 C           -0.36404246       -2.73942188        2.78215513
 C            2.85529252       -1.76038342        2.24539729
 C            1.92270752       -2.82979538        1.96133018
 C            2.86607936        0.60412896        1.69281302
 C            2.97581225       -0.74303774        1.31126936
 C            2.51768696        1.53864245        0.72051497
 C            0.80861544        2.34371257        2.21806864
 C            1.41747324        2.37172056        0.95626182
 C           -1.18366803        1.20437912        2.88472202
 C           -0.58195361        2.30319097        2.27713736
 C           -1.97752651       -0.99507260        2.28052161
 C           -2.01615202        0.39181752        2.11014791
 C           -2.64916830       -1.81122633        1.38085402
 C           -0.79198897       -3.42417577        1.65443165
 C           -2.09004718       -3.11357819        1.09821634
 C            1.40264881       -2.95373033        0.67081331
 C            0.14982976       -3.55200892        0.54999560
 C            2.76520963       -1.07262221       -0.02317861
 C            1.84268501       -2.08047884       -0.33813919
 C            2.91600145        1.28156891       -0.58074407
 C            3.07351930       -0.10740715       -0.96748955
 C            2.26713821        1.96952269       -1.67541236
 C            0.69918030        2.92129062       -0.11702723
 C            1.07161496        2.63820160       -1.44099564
 C           -1.29081668        2.96493571        1.29331641
 C           -0.55242421        3.46888199        0.15371424
 C           -2.62249796        0.94618151        0.97545994
 C           -2.47264391        2.31471174        0.76258190
 C           -3.11757622       -1.25001622        0.12567465
 C           -3.01315179        0.11967523       -0.08665697
 C           -1.99442424       -3.25390042       -0.34176546
 C           -0.59415019       -3.41704278       -0.68367584
 C           -2.71494035       -2.14794574       -0.94341783
 C            1.18499693       -2.06128692       -1.57989177
 C           -0.08507694       -2.63108947       -1.70411295
 C            2.58644754       -0.24616374       -2.32135275
 C            2.38546903        1.10290090       -2.83109934
 C            1.65658739       -1.24015727       -2.61330334
 C            1.52229973        1.29099140       -3.89340001
 C            0.17437173        2.83082064       -2.50538618
 C            0.43285669        2.24403165       -3.74688897
 C           -1.51059764        3.63561911       -0.91434404
 C           -2.69639186        2.86554239       -0.55842625
 C           -1.13053351        3.24843025       -2.25227964
 C           -2.95065828        0.58882773       -1.40605436
 C           -2.96258402        1.95748653       -1.65255372
 C           -2.23552296        2.47452282       -2.79515785
 C           -2.20506883       -1.58717381       -2.10663366
 C           -0.98726996       -2.06685978       -2.59751646
 C           -2.59755769       -0.29144959       -2.43484269
 C            0.90816423       -1.12396231       -3.78711683
 C            0.98961961        0.11218844       -4.54889156
 C           -0.48413671       -1.53865250       -3.77420389
 C           -0.69275862        1.74300663       -4.51931812
 C           -1.97992466        1.62554048       -3.85790722
 C           -2.25313619        0.20548676       -3.69163883
 C           -0.33904325        0.43421805       -5.03640010
 C           -1.26256040       -0.52500106       -4.46052324
