   70
C70 / DATE: 7/ 1/2024 / Origin: Program Fullerene / C70 from database
 C            1.53688765        0.14391004        4.62973421
 C            0.77296010       -1.08727939        4.51699834
 C            1.45304817       -1.94630968        3.56281519
 C            2.66747091        0.03814950        3.72878258
 C            2.75021234       -1.34182461        3.29480500
 C            2.54094306        1.06571482        2.70663611
 C            0.69605723        1.22308948        4.15061891
 C            1.30617939        1.78358264        2.95977112
 C           -0.60649842       -0.72696197        4.26227371
 C           -0.65552953        0.71246480        4.04170136
 C           -1.35676329       -1.54530646        3.42864500
 C            0.72454300       -2.51448777        2.51085939
 C           -0.67090222       -2.47865924        2.54302139
 C            1.37403014       -2.81854312        1.30867174
 C            3.33651531       -1.58238523        2.06784538
 C            2.74432836       -2.58973437        1.21684256
 C            2.87782055        0.73100285        1.39612448
 C            3.59226648       -0.44538828        1.19659575
 C            2.13347729        1.25879345        0.33268891
 C            0.48187776        2.08720629        1.88805104
 C            0.99256332        2.02566612        0.59519388
 C           -1.45788783        1.19101848        3.01297555
 C           -0.89949578        2.06318281        2.06827302
 C           -2.44525778       -0.95128241        2.67297813
 C           -2.56845227        0.43344869        2.64659658
 C           -1.40697864       -2.52397992        1.28996467
 C           -2.56921175       -1.67427679        1.41694597
 C            0.62535566       -2.95597232        0.13109057
 C           -0.69618381       -2.52496232        0.10566701
 C            1.26781518       -3.19235026       -1.07893303
 C            3.33475555       -2.38474332       -0.08665938
 C            3.71286644       -0.97700615       -0.14234018
 C            2.69582974       -2.92832186       -1.18688767
 C            2.41891864        0.86944030       -0.98422651
 C            3.27816780       -0.21927943       -1.22134570
 C            1.72931564        1.47799605       -2.04394842
 C            0.18995685        2.45944727       -0.45721172
 C            0.65270586        2.33100188       -1.77271802
 C           -1.71132718        2.54694553        1.04759641
 C           -1.13028568        2.85783845       -0.18852653
 C           -3.43516446        0.97342507        1.70974489
 C           -3.06777476        2.23504004        1.11138671
 C           -3.04347532       -0.97676534        0.31168200
 C           -3.83355581        0.12860809        0.59737148
 C           -1.17995135       -1.82100325       -1.00297670
 C           -2.31183302       -1.00423926       -0.88968492
 C            0.63264434       -2.72222277       -2.30045826
 C           -0.47459656       -1.87296959       -2.20723303
 C            2.91458166       -2.28147618       -2.46381956
 C            3.25009156       -0.86982704       -2.45021032
 C            1.69631380       -2.42049003       -3.23600217
 C            1.85543779        0.97488415       -3.34145763
 C            2.56295849       -0.26590903       -3.56095241
 C            1.58095424       -1.23278417       -4.04511721
 C           -0.71476869       -0.90936273       -3.19780431
 C            0.66271265        0.86263583       -4.15258868
 C            0.31306216       -0.53885011       -4.07284992
 C           -0.16684316        2.70746314       -2.83841575
 C           -0.34627757        1.76675236       -3.92551584
 C           -1.93233326        3.36462333       -1.20894830
 C           -1.48833023        3.24315196       -2.57704084
 C           -3.89556966        2.36173942       -0.06952772
 C           -4.24301373        1.00444297       -0.47404541
 C           -3.34177879        3.02547684       -1.22575776
 C           -2.63379728       -0.12713690       -1.93918114
 C           -1.76549875       -0.00156235       -3.03334127
 C           -1.66560715        1.22525692       -3.70220979
 C           -2.43644662        2.36079441       -3.25186348
 C           -3.67339007        0.79601490       -1.78429637
 C           -3.53084469        2.12344476       -2.34685306
