   70
C70 / DATE: 7/ 1/2024 / Origin: Program Fullerene / C70 from database
 C            1.51933126        0.02546547        4.64749182
 C            0.69115463       -1.16105122        4.53489923
 C            1.20971829       -1.97438644        3.44997187
 C            2.54046943       -0.04902347        3.61837889
 C            2.39547192       -1.31128885        2.93169095
 C            2.46555224        1.15732660        2.82604671
 C            0.68100831        1.17377930        4.35067962
 C            1.28783730        1.89003709        3.25300825
 C           -0.68714753       -0.72759897        4.46484881
 C           -0.67739902        0.70565737        4.18922593
 C           -1.58114941       -1.52557082        3.76955202
 C            0.31448681       -2.55264776        2.54574764
 C           -1.05897005       -2.49605150        2.81059066
 C            0.75013836       -2.81903589        1.24113552
 C            2.60690946       -1.34791286        1.56352503
 C            2.02511321       -2.38731910        0.85997626
 C            2.70496474        1.07463164        1.45798373
 C            2.94282166       -0.17715509        0.86971728
 C            2.22855808        2.11024030        0.65833789
 C            0.47774371        2.42273294        2.26122776
 C            1.10156950        2.82176842        1.08436846
 C           -1.44682219        1.20339230        3.13632873
 C           -0.88962105        2.10676788        2.21891984
 C           -2.72408604       -0.88127653        3.15487754
 C           -2.60864654        0.51951668        2.79155378
 C           -2.00001218       -2.57387498        1.70399520
 C           -3.06069419       -1.62321399        1.95454993
 C           -0.19483095       -3.13038855        0.25729388
 C           -1.50063224       -2.68996073        0.41503568
 C            0.22852999       -3.48875889       -1.01419272
 C            2.47347568       -2.61373509       -0.42911794
 C            1.63427047       -3.36552129       -1.33538219
 C            3.14446192       -0.25406572       -0.51772861
 C            3.03684723       -1.49033692       -1.15746651
 C            2.61457366        2.13824133       -0.67406485
 C            3.06880185        0.90510475       -1.28882795
 C            1.82255700        2.86660543       -1.64857367
 C            0.35731682        3.56803651        0.18145029
 C            0.75580881        3.63534407       -1.21340641
 C           -1.62990306        2.48543175        1.09173648
 C           -1.08604975        3.44206637        0.23567104
 C           -3.15460943        0.66663163        1.45531619
 C           -3.37319931       -0.66454759        0.91816095
 C           -2.62776829        1.63271669        0.60849120
 C           -2.12606149       -2.01737089       -0.64238995
 C           -2.94870749       -0.91402280       -0.37870175
 C           -0.53304344       -3.01806181       -2.15925052
 C           -1.66575901       -2.22557266       -1.94898024
 C            1.74734885       -2.76442182       -2.65088013
 C            2.53444421       -1.55133320       -2.52335518
 C            0.41657377       -2.67011648       -3.21173630
 C            2.50482271        0.84178496       -2.63043551
 C            1.67634923        2.02218603       -2.82647117
 C            2.09399601       -0.38440357       -3.14307715
 C            0.44209831        1.90004202       -3.46348599
 C           -0.44928592        3.68598388       -2.01596588
 C           -1.58930819        3.54980838       -1.12129542
 C           -0.61866754        2.73051205       -3.09641281
 C           -2.76836737        1.44661673       -0.77009266
 C           -2.94635223        0.15216040       -1.26901139
 C           -2.42322432        2.48155500       -1.63105761
 C           -1.95746653        2.17274098       -2.97012132
 C           -2.10301644       -1.37802687       -2.96826260
 C           -2.73381825       -0.11895738       -2.61431041
 C           -2.21128928        0.91563827       -3.49338824
 C            0.13298839       -1.60058458       -4.04453941
 C            1.00692912       -0.43132521       -4.01956112
 C            0.17533888        0.75023104       -4.20145863
 C           -1.23378818       -1.12717711       -4.10365185
 C           -1.20068493        0.30534238       -4.33513099
