   70
C70 / DATE: 7/ 1/2024 / Origin: Program Fullerene / C70 from database
 C            1.42624748       -0.19635062        5.22262750
 C            0.58099654       -1.37308760        5.20316995
 C            1.19020067       -2.33408332        4.30280354
 C            2.52134981       -0.41967208        4.29181817
 C            2.30875397       -1.68722332        3.63491078
 C            2.61981473        0.75200260        3.46285406
 C            0.64628210        0.91551299        4.70676065
 C            1.47770240        1.60772954        3.75446928
 C           -0.69314717       -0.99337003        4.61772737
 C           -0.61752353        0.40380647        4.23041655
 C            0.13119533       -2.87426009        3.47606431
 C           -1.00431945       -1.96865441        3.59081244
 C            0.47629795       -3.31104269        2.20742886
 C            2.37965512       -1.75652468        2.24072517
 C            1.71027114       -2.80726576        1.61885317
 C            2.97419311        0.60866985        2.12723936
 C            2.73883064       -0.62212552        1.48519801
 C            2.86957908        1.76992925        1.37864286
 C            0.87661673        2.23344281        2.66944881
 C            1.75527764        2.65003406        1.68365582
 C           -1.03007071        0.75709212        2.94749991
 C           -0.40820956        1.81902244        2.27528256
 C           -1.61216567       -1.52768665        2.41988419
 C           -1.78344327       -0.15471840        2.21230002
 C           -0.52747123       -3.24769258        1.16266326
 C           -1.59803878       -2.37086176        1.30971034
 C            1.52863496       -2.79498527        0.18292197
 C            0.18320801       -3.25537856       -0.10058164
 C            2.65349328       -0.66351441        0.07694586
 C            2.02190333       -1.74123728       -0.56082133
 C            2.99843228        1.70764468       -0.05602696
 C            2.99633071        0.47034298       -0.67734531
 C            1.23044339        3.14162420        0.43623441
 C            2.17036039        2.76800946       -0.60620640
 C           -0.89138321        2.18030510        1.00551965
 C           -0.12372678        3.01596048        0.18360691
 C           -2.36396551        0.26079065        1.02215394
 C           -1.97878419        1.48029474        0.46071465
 C           -2.26448395       -1.95562318        0.16088881
 C           -2.89978403       -0.71685358        0.19579441
 C           -0.47414158       -2.74218049       -1.21113633
 C           -1.82372985       -2.44471179       -1.07056080
 C            1.54662175       -1.58974691       -1.85894655
 C            0.25959937       -2.05190661       -2.18041396
 C            2.82477331        0.45870378       -2.06042886
 C            2.19826658       -0.68845130       -2.68023506
 C            1.70394061        2.63935927       -1.90944578
 C            2.26957962        1.64306125       -2.70323062
 C           -0.53918638        3.27330231       -1.11401606
 C            0.42254313        3.11700972       -2.19841837
 C           -2.50360859        1.84923257       -0.78441358
 C           -1.81346272        2.76621551       -1.57196842
 C           -3.64214067       -0.31811496       -0.90377671
 C           -3.47310992        1.04242588       -1.38148200
 C           -2.54078278       -2.11198362       -2.20907477
 C           -3.65009300       -1.19106672       -2.06001045
 C           -0.41348404       -1.57373071       -3.31596213
 C           -1.79960250       -1.71752284       -3.39525707
 C            1.56422423       -0.24388275       -3.90158855
 C            1.60100176        1.21087451       -3.91692214
 C            0.20255905       -0.65325484       -4.16252876
 C           -0.30276211        2.65131602       -3.37221948
 C           -1.70955980        2.56179804       -3.01185341
 C            0.25884390        1.68484584       -4.19597657
 C           -0.53202713        0.53041090       -4.58651720
 C           -3.58180095        1.01725290       -2.83265858
 C           -3.72024378       -0.36593855       -3.25003536
 C           -2.57207367       -0.68980835       -4.07613484
 C           -2.51888953        1.61205396       -3.62034513
 C           -1.91080808        0.55443536       -4.42120840
