   70
C70 / DATE: 7/ 1/2024 / Origin: Program Fullerene / C70 from database
 C            1.44275268        0.12759259        4.81835233
 C            0.69990441       -1.10906671        4.67962014
 C            1.59019245       -2.07627354        4.07940649
 C            2.64762883        0.00780667        4.01021349
 C            2.74357208       -1.35935841        3.55552616
 C            2.60775880        1.05670237        3.01530225
 C            0.63647391        1.19138844        4.24710108
 C            1.46494329        1.89923651        3.30394677
 C           -0.54984844       -0.81224071        3.99699733
 C           -0.59305372        0.62062390        3.74697953
 C           -1.00607206       -1.67398935        2.99998247
 C            1.06837913       -2.88274517        3.00183873
 C           -0.29311334       -2.84950420        2.72099409
 C            2.80721703       -1.61608761        2.12465250
 C            1.98171263       -2.77639647        1.87643457
 C            2.85874960        0.76369293        1.67388758
 C            2.75230634       -0.55929153        1.22265516
 C            2.59766617        1.78193410        0.76163700
 C            0.86273738        2.48914163        2.20773431
 C            1.70616927        2.78520994        1.15543460
 C           -1.07261963        1.06820334        2.51874389
 C           -0.45914803        2.15509222        1.88060089
 C           -1.87070047       -1.15931887        2.03037447
 C           -1.87098613        0.21691772        1.76794480
 C           -2.49183526       -2.03637528        1.13988485
 C           -0.68146106       -3.60212476        1.62259704
 C           -1.93147155       -3.29627933        0.95824183
 C            1.44186179       -2.98093453        0.61116134
 C            0.31053696       -3.78874771        0.57600598
 C            2.30483041       -0.80815490       -0.07996014
 C            1.58880095       -1.98310952       -0.36994036
 C            2.72316694        1.49949686       -0.59444627
 C            2.38566371        0.21386143       -1.02994469
 C            2.66755646        2.57145016       -1.47881860
 C            1.20471610        3.64181275        0.19709872
 C            1.90058946        3.72834465       -1.06746326
 C           -0.95707588        2.58814912        0.63710974
 C           -0.21785474        3.53938883       -0.07533931
 C           -2.46931663        0.70320078        0.61422637
 C           -1.90234267        1.80370399       -0.04239329
 C           -3.34684656       -1.52521482        0.16293147
 C           -3.42106264       -0.08656509       -0.01282515
 C           -3.36330997       -2.12910481       -1.16469047
 C           -1.81306088       -3.82888865       -0.38623538
 C           -0.39333451       -3.96618522       -0.66872973
 C           -2.40705752       -3.08351799       -1.47485996
 C            0.87646857       -2.07669149       -1.57856061
 C           -0.07913533       -3.07500347       -1.75845256
 C           -1.33392341       -2.72894696       -2.39751046
 C            1.79270704        0.03118245       -2.28197626
 C            0.86293161       -0.99345823       -2.45486384
 C            2.37074857        2.33013643       -2.87465559
 C            1.92596696        1.00899728       -3.26246130
 C            0.90645277        3.98170828       -2.08783714
 C           -0.39319338        3.66387135       -1.51122097
 C            1.34103953        3.28024441       -3.27787115
 C           -2.13582964        2.01319207       -1.41436202
 C           -1.23954310        2.77680162       -2.16352567
 C           -3.76311474        0.17333611       -1.39114959
 C           -3.60599198       -1.07280380       -2.12437539
 C           -3.02339045        1.19170981       -2.10623122
 C           -1.40099305       -1.53081956       -3.09811898
 C           -0.21867787       -0.83152132       -3.33642417
 C           -2.61090813       -0.83594802       -3.15161847
 C           -2.58594361        0.60043651       -3.35938812
 C            0.84730638        1.19369829       -4.20920038
 C            0.35071450        2.54892043       -4.03485768
 C           -0.99049415        2.42486072       -3.49400683
 C           -0.29965896        0.31227735       -4.12161990
 C           -1.47785325        1.15034402       -3.97968305
