   70
C70 / DATE: 7/ 1/2024 / Origin: Program Fullerene / C70 from database
 C            1.48901036       -0.14857770        5.14671623
 C            0.66504013       -1.33535520        5.24842969
 C            1.23817679       -2.33349399        4.36863927
 C            2.49428097       -0.38188442        4.11799478
 C            2.27919769       -1.69862592        3.57371327
 C            2.45295367        0.73850059        3.21089228
 C            0.63974229        0.92547178        4.67270003
 C            1.38326691        1.61450923        3.65051407
 C           -0.65236589       -1.01254271        4.72127421
 C           -0.64025985        0.36902270        4.28823054
 C            0.13704829       -2.95074059        3.66021687
 C           -0.98739989       -2.02837345        3.74859459
 C            0.41685101       -3.49193269        2.41740056
 C            2.24459505       -1.87364055        2.19023220
 C            1.60811501       -3.01815010        1.72559316
 C            2.57084445        0.52299196        1.83559958
 C            2.40148515       -0.77373534        1.31967965
 C            2.26316457        1.60941895        1.01483745
 C            0.67774212        2.23340774        2.64253602
 C            1.42643504        2.59753885        1.54798124
 C           -1.13270661        0.69002750        3.02231479
 C           -0.63700816        1.82668712        2.38141656
 C           -1.61941882       -1.65127398        2.56755527
 C           -1.76257803       -0.28839701        2.24977549
 C           -0.64099217       -3.50890311        1.42600994
 C           -1.68075035       -2.59475224        1.54422622
 C            1.37211311       -3.17109804        0.31208444
 C            0.01168617       -3.65754132        0.14047339
 C            2.18205191       -0.94152580       -0.06442302
 C            1.83723525       -2.20633257       -0.56456888
 C            2.33673433        1.45523947       -0.36946321
 C            2.15188185        0.18253000       -0.91398273
 C            2.14903654        2.58262927       -1.16598952
 C            0.81761665        3.48705688        0.69472336
 C            1.40928973        3.68922038       -0.60054838
 C           -1.20598100        2.22486900        1.16328132
 C           -0.61069239        3.30468060        0.51468757
 C           -2.28524238        0.06741067        1.00169107
 C           -1.92459665        1.28719058        0.40719242
 C           -2.42094747       -2.29626759        0.41369261
 C           -2.86325807       -0.92872624        0.22941543
 C           -0.67411368       -3.29044555       -1.01174264
 C           -1.96718434       -2.78674511       -0.88096066
 C            1.40296190       -2.32709329       -1.87428106
 C            0.08910461       -2.91142066       -2.11107864
 C            1.83931579        0.03941365       -2.27806608
 C            1.56203620       -1.22190888       -2.78594048
 C            1.70339449        2.43394250       -2.53744678
 C            1.55841568        1.15819265       -3.07195106
 C            0.32667806        4.00661348       -1.50304703
 C           -0.90813917        3.56817304       -0.87414260
 C            0.66579536        3.43493002       -2.78491052
 C           -2.17353027        1.51370098       -0.96739504
 C           -1.72571665        2.69935024       -1.58272425
 C           -3.04170124       -0.72243710       -1.18703630
 C           -2.49792738       -1.87932626       -1.88324215
 C           -2.82674962        0.53071545       -1.73497640
 C           -0.52162008       -2.18742750       -3.21271575
 C            0.53429199       -1.37048428       -3.79942972
 C           -1.81234948       -1.67028079       -3.07536370
 C            0.80698961        1.01055354       -4.24310300
 C            0.18706021       -0.26686481       -4.55512650
 C           -0.38788667        3.08665431       -3.61045594
 C           -1.66814158        2.78652973       -2.97600072
 C           -0.14971380        2.04734099       -4.58554709
 C           -2.76343629        0.57752222       -3.12426072
 C           -2.17147026       -0.55389788       -3.82528043
 C           -1.22286409       -0.02145698       -4.78311011
 C           -2.32911854        1.78654705       -3.77765177
 C           -1.42577806        1.41307652       -4.85435267
