   70
C70 / DATE: 7/ 1/2024 / Origin: Program Fullerene / C70 from database
 C            1.39079225        0.17594994        5.13596908
 C            0.60821733       -1.01147990        4.84542337
 C            1.48034793       -1.95887582        4.19060723
 C            2.62498353        0.08140995        4.37381974
 C            2.73554151       -1.28021704        3.90151119
 C            2.62485577        1.15651408        3.39555534
 C            0.65537949        1.32175365        4.63323727
 C            1.54148798        2.05828106        3.75629055
 C           -0.59390829       -0.59341836        4.15152521
 C           -0.60927917        0.85550890        4.08661490
 C           -1.02630291       -1.28955952        3.03408639
 C            1.02616340       -2.57433097        2.95708567
 C           -0.24721415       -2.31536454        2.47662941
 C            3.02422109       -1.49642944        2.50001477
 C            2.11907210       -2.52375738        2.01262613
 C            2.85590994        0.86918421        2.04426005
 C            3.28860763       -0.41310692        1.66789862
 C            2.40774885        1.77769265        1.07111577
 C            0.95740546        2.80663665        2.75279022
 C            1.59835181        2.83829399        1.45433727
 C           -1.09975088        1.47089610        2.93023071
 C           -0.46526871        2.62968287        2.49513370
 C           -1.96264720       -0.66392061        2.22220462
 C           -1.84499232        0.71406116        2.01033265
 C           -2.59144916       -1.44963745        1.27537861
 C           -0.52811043       -2.71079620        1.17294072
 C           -1.84140084       -2.57525472        0.75366884
 C            1.83285458       -2.54095045        0.64707887
 C            0.50216402       -2.68432646        0.22032860
 C            3.41996008       -0.70871809        0.31968674
 C            2.73634727       -1.89152609       -0.18507287
 C            2.52068332        1.47382361       -0.28725219
 C            3.22715933        0.33754323       -0.65813755
 C            1.71943928        2.13257331       -1.23565514
 C            0.59892513        3.31861178        0.52813457
 C           -0.69936044        3.09774463        1.14967128
 C            0.72602315        3.02996916       -0.82310684
 C           -2.20308847        1.26553102        0.76241377
 C           -1.69723736        2.51611316        0.38216960
 C           -3.25402039       -0.81911990        0.15868814
 C           -2.93075580        0.49390027       -0.16197658
 C           -2.16153787       -2.69923579       -0.64889668
 C           -3.29238410       -1.81689448       -0.89179024
 C            0.18618753       -2.53993035       -1.14346508
 C           -1.12854177       -2.75239155       -1.57841073
 C            2.38334140       -1.63473595       -1.56341882
 C            2.91039104       -0.32548129       -1.90726300
 C            1.12564641       -1.99320717       -2.02889717
 C            1.75738226        1.71780244       -2.57029919
 C            2.27240918        0.39842061       -2.89648402
 C            0.61749743        1.96503293       -3.44300682
 C           -0.42823015        3.16674044       -1.58940196
 C           -1.70443410        2.86855661       -0.95951479
 C           -0.47066613        2.66668030       -2.94965150
 C           -3.08295094        0.91998399       -1.48849222
 C           -2.49407828        2.10889769       -1.89943589
 C           -1.81778216        2.17342490       -3.18820070
 C           -3.53245718       -1.40332856       -2.18724695
 C           -3.53030905        0.02394650       -2.46417992
 C           -1.45161532       -2.55887520       -2.92072576
 C           -2.77408288       -2.04514562       -3.24334338
 C            0.70408856       -1.46459078       -3.24766330
 C            1.26330804       -0.26784306       -3.70026507
 C            0.39976621        0.76789027       -4.24196870
 C           -0.49968946       -1.89168804       -3.78833346
 C           -2.02772752        1.15658389       -4.10952281
 C           -3.08321063        0.19748659       -3.83822342
 C           -2.64589873       -1.09611959       -4.33264691
 C           -0.88558068        0.42285936       -4.64211500
 C           -1.23669681       -0.98572459       -4.65539494
