   70
C70 / DATE: 7/ 1/2024 / Origin: Program Fullerene / C70 from database
 C            1.17667035        0.10957716        4.35670815
 C            2.43995920       -0.21824701        3.73731512
 C            2.42305414       -1.64049847        3.44375930
 C            0.34295900       -1.08424433        4.33257086
 C            1.05222685       -2.09988116        3.58968754
 C           -0.97379953       -0.69260758        3.87946687
 C            0.39524120        1.19097873        3.79623986
 C           -0.98980534        0.75692270        3.76394237
 C            0.88313401        1.92646974        2.72052709
 C            2.81442742        0.47128537        2.51744068
 C            1.97215635        1.44600212        1.97762498
 C            3.08487918       -1.83389977        2.16687941
 C            3.40031287       -0.51821581        1.62975349
 C            2.58097195       -2.79692132        1.30692698
 C            0.43133971       -2.70914471        2.50243055
 C            1.23855345       -3.31089805        1.53655877
 C           -1.61673285       -1.44163809        2.90301415
 C           -0.91733959       -2.44749133        2.21665372
 C           -2.75323736       -0.87736264        2.33249406
 C           -1.85520844        1.35275535        2.84681995
 C           -2.86031352        0.57298657        2.27304124
 C           -0.00650674        2.80513343        2.12151152
 C           -1.43242340        2.51060551        2.19343952
 C            0.27153431        3.31523838        0.79538064
 C            2.07208272        1.73111171        0.60945025
 C            1.26861697        2.72085670        0.03143129
 C            3.31740870       -0.30444242        0.25880604
 C            2.91624921        0.95513225       -0.18925531
 C            2.73347985       -2.60434207       -0.12253473
 C            3.23461864       -1.40206769       -0.60703589
 C            0.68165434       -3.68504180        0.24801210
 C            1.57442277       -3.18193033       -0.78273462
 C           -1.51548333       -3.08464697        1.12794098
 C           -0.68433439       -3.60368011        0.05530781
 C           -3.31366697       -1.42321934        1.11048903
 C           -2.70368630       -2.51615134        0.51504104
 C           -3.39932971        0.92296554        0.96667257
 C           -3.77045750       -0.30986088        0.29339304
 C           -2.01712251        2.87741200        0.91347957
 C           -1.00710793        3.61889182        0.18011060
 C           -2.82755908        1.96554486        0.24337329
 C           -1.08116180        3.66047718       -1.19918531
 C            1.25605566        2.90095368       -1.35578700
 C            0.13707712        3.47032982       -1.96619739
 C            3.08091206        1.27171372       -1.53012836
 C            2.19088494        2.23678937       -2.14642849
 C            3.09022743       -1.16767757       -1.96969632
 C            3.26389072        0.18202952       -2.46467226
 C            1.06149792       -2.53777263       -1.90906783
 C            1.93390664       -1.74318273       -2.64519300
 C           -1.18272104       -3.05099665       -1.19034806
 C           -2.51851037       -2.54756081       -0.92875179
 C           -0.31869687       -2.33582380       -2.02169391
 C           -3.67364934       -0.38035480       -1.08773559
 C           -3.01005613       -1.51625550       -1.71262137
 C           -2.84046343        1.94187818       -1.15576499
 C           -2.13030092        2.90859268       -1.86630342
 C           -3.29876359        0.80936998       -1.83184894
 C           -0.25948964        3.00461901       -3.28171945
 C           -1.65236306        2.59607308       -3.20328399
 C            1.79242433        1.71182509       -3.44939563
 C            2.33145509        0.37231533       -3.55903929
 C            1.40363112       -0.74465825       -3.55118743
 C            0.49286985        1.92296005       -3.88316166
 C           -0.82582746       -1.31020199       -2.83382273
 C           -2.18543567       -1.00227599       -2.79144361
 C           -2.61335003        0.36132973       -3.03508425
 C           -1.74581528        1.22780676       -3.67863125
 C            0.03905389       -0.48046643       -3.55427442
 C           -0.39912082        0.77472726       -3.98966617
