   70
C70 / DATE: 7/ 1/2024 / Origin: Program Fullerene / C70 from database
 C            1.48445021        0.01743751        4.80400676
 C            0.69034394       -1.18865911        4.63037858
 C            1.55070493       -2.18329174        4.04750853
 C            2.67455203       -0.12713709        3.98594557
 C            2.79897903       -1.52689501        3.66680777
 C            2.57879311        0.82161442        2.89447751
 C            0.71713893        1.12337622        4.26460372
 C            1.46929502        1.71599030        3.18009828
 C           -0.51854650       -0.82148004        3.92111291
 C           -0.60183805        0.62729285        3.95120220
 C           -0.89132643       -1.48535393        2.74200158
 C            1.08716571       -2.90002610        2.87741348
 C           -0.09069842       -2.51422172        2.22174771
 C            3.05854646       -1.90396835        2.29189415
 C            2.27790596       -3.10343964        2.08218836
 C            2.76447617        0.40028045        1.57807137
 C            3.06692897       -0.93762962        1.27872704
 C            2.29976014        1.22664340        0.56376733
 C            0.75067611        2.22751043        2.10467899
 C            1.34249506        2.20593178        0.85073062
 C           -1.27969702        1.22627290        2.90915382
 C           -0.64345177        2.22536640        2.16467945
 C           -1.83606285       -0.85844308        1.92076408
 C           -2.21080286        0.44572304        2.25085566
 C           -2.05754042       -1.32437313        0.61911250
 C           -0.26518928       -2.93397049        0.89665978
 C           -1.21245087       -2.30185016        0.07498702
 C            2.10559478       -3.52367522        0.78580589
 C            0.74675116       -3.70867327        0.32183362
 C            2.95867306       -1.38756728       -0.04766627
 C            2.75027937       -2.75350681       -0.25785101
 C            2.55391070        0.88244186       -0.75496574
 C            2.69477521       -0.47156730       -1.08212760
 C            2.28599335        1.82678817       -1.73799403
 C            0.69159198        2.85009196       -0.19566460
 C            1.30080465        2.85437588       -1.44929529
 C           -1.36042834        2.77655796        1.09687229
 C           -0.67155982        3.14505142       -0.07167343
 C           -3.10929713        1.12050657        1.45149545
 C           -2.71555259        2.44537674        1.02010501
 C           -3.01157266       -0.68434727       -0.18502355
 C           -3.65456648        0.45188087        0.29409144
 C           -3.06179456       -0.95297331       -1.54709939
 C           -1.25905867       -2.58850264       -1.30146489
 C           -2.09404789       -1.85259436       -2.12584011
 C            0.85310286       -3.79778388       -1.11574530
 C            2.13158362       -3.20081623       -1.48326764
 C           -0.16293319       -3.16928374       -1.91912213
 C            2.33461985       -0.93259769       -2.36460230
 C            1.87546668       -2.23069328       -2.51720361
 C            0.50980814       -2.42490548       -2.96952519
 C            2.08111610        1.38481964       -3.09594192
 C            1.90499294       -0.02815068       -3.32612520
 C            0.50604575        3.06619907       -2.64864236
 C            0.91629319        2.07358285       -3.62342870
 C           -1.37723366        3.59364835       -1.19134463
 C           -0.84576993        3.33332268       -2.51481123
 C           -3.48258761        2.74937388       -0.16830474
 C           -4.05938865        1.49684915       -0.63672344
 C           -2.80954023        3.37790235       -1.27950460
 C           -3.26262346        0.13309599       -2.49681266
 C           -1.80252051        2.46530674       -3.18792829
 C           -3.73344689        1.35543131       -2.04292446
 C           -3.05757787        2.56913169       -2.46358784
 C           -1.52056631       -1.20622030       -3.30100261
 C           -0.15680589       -1.34974403       -3.55536018
 C            0.59126906       -0.23055106       -3.92538700
 C           -0.04856078        1.07134545       -4.04247241
 C           -2.15937484        0.09215093       -3.44633157
 C           -1.38047179        1.22622183       -3.67101251
