   70
C70 / DATE: 7/ 1/2024 / Origin: Program Fullerene / C70 from database
 C            1.26404690        0.24555261        4.79000072
 C            2.49122102        0.04370882        4.05124156
 C            2.54688315       -1.36421257        3.71734394
 C            0.43488469       -0.93987706        4.59030335
 C            1.18781293       -1.86874742        3.77988215
 C           -0.85603102       -0.49631807        4.11579440
 C            0.45520552        1.39529020        4.45384736
 C           -0.91364668        0.92715941        4.34804304
 C            0.74490711        2.12105678        3.22682698
 C            2.69277617        0.77682519        2.81112110
 C            1.69056281        1.62267868        2.33594233
 C            3.24638596       -1.47729448        2.45589178
 C            3.34362936       -0.13569626        1.89294260
 C            2.86068555       -2.50051682        1.60608454
 C            0.62481554       -2.38897927        2.61559687
 C            1.49209899       -2.99718946        1.70851642
 C           -1.34738447       -0.97131040        2.90354864
 C           -0.61845533       -1.91672887        2.16104589
 C           -2.37513297       -0.25475623        2.28045757
 C           -1.55524417        1.73272822        3.33639817
 C           -0.53043468        2.56071452        2.71366253
 C           -2.47717579        1.13029806        2.48969410
 C           -0.66819987        2.82811763        1.35818955
 C            1.44859854        1.70328749        0.95845651
 C            0.33889031        2.41490210        0.47255034
 C            3.14295827        0.02055432        0.52741406
 C            2.29334048        1.03326765        0.06651406
 C            3.14167963       -2.34755521        0.19444798
 C            3.40275671       -1.07104299       -0.29821652
 C            1.03457842       -3.29355759        0.36247388
 C            2.18994278       -3.18707993       -0.50922302
 C           -1.08141585       -2.29796747        0.89354823
 C           -0.18476274       -2.78264249       -0.05936825
 C           -3.02676238       -0.84465826        1.20149082
 C           -2.35001492       -1.90680671        0.48139953
 C           -3.72581798       -0.02081737        0.22784048
 C           -2.92470446        1.93364694        1.45021955
 C           -1.97338634        2.87950648        0.89342834
 C           -3.67319225        1.35795249        0.35174963
 C           -2.21416893        2.96438358       -0.52196754
 C           -3.39949565        2.17327115       -0.81838827
 C            0.11292566        2.48601068       -0.91320471
 C           -1.13837518        2.91504346       -1.39484364
 C            2.13101861        1.20588349       -1.30812363
 C            1.08560917        1.99347798       -1.79651616
 C            3.36814909       -0.88270776       -1.67061864
 C            2.82465256        0.36249528       -2.18050971
 C            1.99008161       -2.94948313       -1.85842308
 C            2.83506175       -1.95600186       -2.49311917
 C           -0.39161047       -2.51448360       -1.41804053
 C            0.63450955       -2.71936307       -2.33316894
 C           -2.59571712       -1.71285177       -0.93713136
 C           -3.55502320       -0.63327731       -1.08146439
 C           -1.52758031       -1.81811867       -1.82295523
 C           -3.51599697        1.61452546       -2.08283013
 C           -3.50541416        0.16274036       -2.21810710
 C           -1.44261937        2.82779425       -2.74846724
 C           -2.67099690        2.15247003       -3.13478201
 C            0.86963637        2.03074516       -3.17449711
 C           -0.42342238        2.43131404       -3.68629873
 C            2.28210827        0.08139161       -3.49966999
 C            2.07723588       -1.35376312       -3.57019913
 C            0.71403779       -1.85562404       -3.49719649
 C            1.26660458        0.88869980       -3.97253536
 C           -1.49552192       -1.03790461       -2.98773930
 C           -2.55540249       -0.17167565       -3.26606682
 C           -2.29891426        1.05158742       -4.00128993
 C           -0.95200327        1.31122435       -4.45839349
 C           -0.32022224       -0.95980494       -3.75016939
 C            0.02395501        0.24850875       -4.36038398
