   70
C70 / DATE: 7/ 1/2024 / Origin: Program Fullerene / C70 from database
 C            1.30361196       -0.22351102        4.52092612
 C            2.59885471       -0.45982031        3.91270601
 C            2.59103231       -1.79967510        3.34942031
 C            0.47679217       -1.39483479        4.28381224
 C            1.28292892       -2.38295597        3.58854210
 C           -0.76764673       -0.94986856        3.67694112
 C            0.54468792        0.94519714        4.11531456
 C           -0.77267145        0.50144814        3.68594473
 C            1.17637348        1.95027545        3.39455294
 C            3.06969473        0.45380555        2.88577644
 C            2.44045069        1.67968334        2.71881104
 C            3.08449411       -1.71737189        1.98355691
 C            3.40602110       -0.32972401        1.70961118
 C            2.46148160       -2.46283623        0.98575177
 C            0.69507847       -3.12145391        2.57261255
 C            1.43201884       -3.33799354        1.33896927
 C           -1.25657779       -1.61937829        2.56061378
 C           -0.67754133       -2.83109589        2.18707445
 C           -2.03510976       -0.92586285        1.63490412
 C           -1.41306827        1.18065496        2.65344678
 C           -2.20255807        0.45941711        1.75252065
 C            0.37679355        2.76960795        2.50409920
 C           -0.96291536        2.45512178        2.30151417
 C            2.35673927        2.25083055        1.38556826
 C            1.18776622        3.10155125        1.34314117
 C            3.13245461        0.16747234        0.44055721
 C            2.64230598        1.46846894        0.27896669
 C            2.57331430       -2.03952849       -0.34271828
 C            3.01192325       -0.73706348       -0.61136881
 C            1.93669585       -2.77823012       -1.33901909
 C            0.45455600       -3.73562481        0.34044024
 C           -0.85121072       -3.31622084        0.82597177
 C            0.75871716       -3.55309736       -0.99751090
 C           -2.46533018       -1.58026578        0.48326506
 C           -1.70872430       -2.63513158       -0.03095913
 C           -3.43691986       -0.98439226       -0.30558779
 C           -2.97509461        1.15063651        0.81455547
 C           -3.66239559        0.44257391       -0.17272008
 C           -1.61496086        3.13128618        1.28061606
 C           -2.76562878        2.51630994        0.64919236
 C            0.53288888        3.31404055        0.13197746
 C           -0.80115029        3.70021505        0.21827229
 C            2.14729349        1.86090431       -0.96213405
 C            0.99171441        2.66289450       -1.02927232
 C            2.96487698       -0.23097116       -1.90684036
 C            2.58792088        1.15956841       -2.07845858
 C            1.71069454       -2.19259821       -2.64846093
 C            2.33209105       -0.99801599       -2.96591834
 C           -0.29852381       -3.15878523       -1.91214971
 C           -1.53422957       -2.76076853       -1.41399812
 C            0.30564405       -2.38726670       -2.98668957
 C           -3.48193470       -1.31425648       -1.71464943
 C           -2.38425684       -2.07611296       -2.27363295
 C           -3.78544130        1.00104442       -1.51535474
 C           -3.59483353       -0.07537745       -2.46370581
 C           -2.87497370        3.09621931       -0.67744454
 C           -1.60988569        3.74797815       -0.97558270
 C           -3.20497970        2.22812882       -1.78985118
 C            0.24004379        2.73370242       -2.22074791
 C           -1.08194585        3.16015182       -2.18207289
 C           -2.10849938        2.29909789       -2.74962871
 C            1.86858654        1.27484888       -3.32356409
 C            1.64849716       -0.06628841       -3.84046110
 C            0.60060720        1.96265367       -3.31798946
 C           -0.43000018       -1.36012391       -3.58337496
 C           -1.80344779       -1.29648087       -3.35804864
 C           -2.47469055       -0.00485835       -3.38557556
 C           -1.71563943        1.16294096       -3.46383566
 C            0.22293277       -0.22868633       -4.06708374
 C           -0.39579292        1.07779744       -3.90353633
