   70
C70 / DATE: 7/ 1/2024 / Origin: Program Fullerene / C70 from database
 C            0.75537839       -0.07007620        5.24761562
 C            2.12431579       -0.32065256        4.84741883
 C            2.14956928       -1.63554560        4.22264193
 C           -0.02117141       -1.23821783        4.85725943
 C            0.77939763       -1.98151474        3.90679682
 C           -1.31704376       -0.77204921        4.43917415
 C            0.06536726        1.09844638        4.72998745
 C           -1.29360863        0.68644435        4.45554389
 C            0.70806550        1.95032349        3.83615686
 C            2.77944437        0.60165872        3.93655000
 C            2.08508224        1.69827067        3.43358766
 C            3.10392407       -1.58124315        3.14670347
 C            3.57126674       -0.20401092        3.03334745
 C            2.67718069       -1.98821553        1.82406148
 C            0.37288638       -2.06042895        2.56575889
 C            1.32872982       -2.23377391        1.55408278
 C           -1.80537177       -1.16784407        3.13454426
 C           -0.96509767       -1.81409473        2.22469457
 C           -1.93743204        1.13106716        3.23358942
 C           -2.56911464       -0.04172973        2.65924899
 C           -0.00753169        2.47047652        2.67534852
 C           -1.28830575        2.01688315        2.36829172
 C            2.21221672        2.06424761        2.02644356
 C            0.95232671        2.64683960        1.60015930
 C            3.58521762        0.12026551        1.61910821
 C            3.39865163       -1.13400032        0.91459700
 C            2.91187573        1.24822060        1.14042974
 C            2.94025297       -1.05475438       -0.37972237
 C            0.93117912       -2.21779597        0.21174623
 C            1.88180565       -1.87720880       -0.75681469
 C           -1.34830480       -1.80082722        0.87813134
 C           -0.42441153       -2.14093671       -0.11106580
 C           -2.85855509        0.00655261        1.31552649
 C           -2.49142296       -1.07694038        0.52168022
 C           -1.72613139        2.05647492        1.04047065
 C           -2.81723792        1.25427775        0.72299890
 C            0.53491925        2.46148350        0.28840293
 C           -0.82721777        2.38884080        0.01354712
 C            2.57574344        1.26920555       -0.21714809
 C            3.00647475        0.18841635       -0.97951884
 C            1.44002529        1.97385123       -0.64926725
 C            2.79048951        0.21540617       -2.33913426
 C            1.51298074       -1.83408002       -2.09913326
 C            2.27752117       -1.00332761       -2.92209477
 C           -0.80360549       -2.06562731       -1.45536263
 C            0.18613656       -2.09978751       -2.44734860
 C           -2.88826873       -1.02863007       -0.81246514
 C           -2.11243603       -1.67918318       -1.77538778
 C           -3.34880428        1.33906815       -0.54431890
 C           -3.64836467        0.08127802       -1.18968647
 C           -1.25058080        2.27770324       -1.31615671
 C           -2.61332060        2.09599164       -1.52999819
 C            1.04215831        1.85799829       -1.98642447
 C            1.94394573        1.26187155       -2.86232596
 C           -0.32747825        1.89671712       -2.30783018
 C            1.78917071       -0.63085673       -4.22834586
 C            1.49968144        0.79893115       -4.15923219
 C           -0.17436859       -2.08798185       -3.79638265
 C            0.60853218       -1.29500993       -4.72676250
 C           -2.52958252       -1.65694183       -3.10788072
 C           -1.56149701       -1.88618520       -4.16027583
 C           -3.82451948        0.39664865       -2.58719980
 C           -3.09266697        1.63949244       -2.81664353
 C           -3.37269134       -0.56630407       -3.56288606
 C           -0.77286826        1.52467386       -3.59836297
 C            0.11505148        0.96576919       -4.51739252
 C           -0.26527955       -0.25121107       -5.21962451
 C           -1.61690592       -0.74068690       -5.06702235
 C           -2.13505543        1.37761793       -3.85956832
 C           -2.60071212        0.17626033       -4.53686174
