   70
C70 / DATE: 7/ 1/2024 / Origin: Program Fullerene / C70 from database
 C            1.59808452        0.28439897        4.84874666
 C            0.76399148       -0.90314217        4.85518911
 C            1.32762051       -1.85157126        3.91315340
 C            2.56939073        0.13998741        3.77750239
 C            2.40570978       -1.17482474        3.20213828
 C            2.44147418        1.28534962        2.90421463
 C            0.74929183        1.41124053        4.51270314
 C            1.40959865        2.15047694        3.45771142
 C           -0.61214101       -0.48737657        4.66552074
 C           -0.58894399        0.90720242        4.25475571
 C           -1.46177591       -1.35517241        4.00474652
 C            0.46095011       -2.67091255        3.19080447
 C           -0.91186104       -2.58114277        3.44250877
 C            0.91360885       -3.18905989        1.97612953
 C            2.48817079       -1.32779919        1.82329893
 C            2.00946304       -2.51774047        1.29665894
 C            2.48119654        1.09475372        1.52322412
 C            2.57497503       -0.19998887        0.99182221
 C            2.03088547        2.13070850        0.70341786
 C            0.60930520        2.84230817        2.56646731
 C            1.09597285        3.02602008        1.21687350
 C           -1.23556965        1.30277206        3.07937111
 C           -0.79244946        2.45585310        2.44384131
 C           -2.35855662       -0.81428896        3.00204495
 C           -2.02786084        0.38717925        2.37753765
 C           -1.86600307       -3.03437127        2.44649383
 C           -2.79306407       -1.93579979        2.20352168
 C           -0.02466961       -3.64402964        0.95864787
 C           -1.38536230       -3.49927619        1.16037612
 C            1.79457982       -2.63472770       -0.12859922
 C            0.53528534       -3.31680225       -0.34213199
 C            2.53003631       -0.35790485       -0.39750745
 C            2.09723760       -1.56671995       -0.95550893
 C            2.10400063        1.98785113       -0.68129467
 C            2.56729357        0.77923257       -1.20548397
 C            1.27998673        2.80114292       -1.46609808
 C           -0.06423823        3.33721061        0.41395557
 C           -1.19760531        2.72106368        1.07705841
 C            0.04303747        3.17354892       -0.95072125
 C           -2.28470000        0.56831610        1.00188310
 C           -1.94018928        1.77578451        0.37497782
 C           -2.90064711       -1.76016431        0.77677980
 C           -2.17926146       -2.84317338        0.14077965
 C           -2.77845626       -0.49024851        0.22262107
 C           -0.28644364       -2.85567320       -1.36733128
 C           -1.63616001       -2.58276328       -1.10893957
 C            1.55040408       -1.56330700       -2.23717398
 C            0.32124527       -2.20537112       -2.44969032
 C            2.59231603        0.60680349       -2.58758932
 C            2.01259146       -0.60656317       -3.13331712
 C            1.42912097        2.78798994       -2.84764525
 C            2.19426395        1.71110661       -3.44104665
 C            0.24266789        2.99249635       -3.66660710
 C           -1.09235514        2.78047629       -1.64202615
 C           -1.96226575        1.87063128       -1.02427932
 C           -1.05951322        2.89058168       -3.02628264
 C           -2.65134035       -0.42272880       -1.16366979
 C           -2.24015316       -1.57491284       -1.84715001
 C           -2.51095452        0.82407300       -1.76767715
 C           -0.50211147       -1.79677153       -3.49930626
 C           -1.87891322       -1.47965585       -3.17914749
 C            1.22081100       -0.24734612       -4.29623810
 C            1.42570915        1.17064557       -4.55085043
 C            0.28070716        2.03910359       -4.76182710
 C           -0.03453950       -0.81704205       -4.46390318
 C           -1.87663784        2.00341954       -3.82308776
 C           -2.54589255        0.90336946       -3.15861167
 C           -2.25501658       -0.29504243       -3.91695528
 C           -1.04002502        1.45188055       -4.88090145
 C           -1.17530683        0.00843657       -4.83887768
