   70
C70 / DATE: 7/ 1/2024 / Origin: Program Fullerene / C70 from database
 C            1.53987817        0.19653658        4.84837928
 C            0.72497469       -0.99682217        4.70235477
 C            1.43583114       -1.90855843        3.82895886
 C            2.61121925        0.12457644        3.86814336
 C            2.60428914       -1.20568347        3.31621778
 C            2.46018064        1.23361028        2.95288724
 C            0.71658492        1.33603035        4.50038341
 C            1.44500715        2.11070663        3.51402351
 C           -0.61487678       -0.58957287        4.33124086
 C           -0.60782649        0.85186672        4.14329301
 C           -1.31772706       -1.37786668        3.43781432
 C            0.71710662       -2.71695923        2.94607015
 C           -0.66101011       -2.51872814        2.80431034
 C            1.42615698       -3.29211415        1.89201711
 C            2.91531152       -1.38264670        1.97807461
 C            2.66862547       -2.65510188        1.49220788
 C            2.46085359        0.98155221        1.57680349
 C            2.81083021       -0.28883631        1.09464240
 C            1.86663916        1.91169240        0.71567109
 C            0.70099678        2.87282357        2.63649275
 C            1.14811368        2.96565898        1.26238884
 C           -1.23413918        1.41940051        3.03206211
 C           -0.73175167        2.62951744        2.56658342
 C           -2.15104120       -0.73666552        2.43727912
 C           -2.00432245        0.62289215        2.17075710
 C           -1.29309184       -2.71349415        1.50570310
 C           -2.27771155       -1.65926020        1.32937046
 C            0.73308089       -3.65524721        0.66716981
 C           -0.52328296       -3.11761970        0.41682307
 C            2.87938070       -2.92260194        0.09447995
 C            1.72511168       -3.66739852       -0.38569843
 C            2.82760980       -0.50728757       -0.29061554
 C            3.05185060       -1.79306667       -0.78731357
 C            1.68362045        1.59605976       -0.63341886
 C            2.32535901        0.47167251       -1.15498079
 C            0.81365638        2.36547215       -1.43717859
 C            0.02096804        3.48431945        0.52996357
 C           -1.16977668        3.12742604        1.28557474
 C           -0.03726163        3.31080005       -0.84046836
 C           -2.40150990        1.11560253        0.91566891
 C           -2.18193306        2.46404530        0.60809675
 C           -2.47556459       -1.15193156        0.05988311
 C           -2.73485923        0.20861809       -0.10696939
 C           -0.85965644       -2.66207878       -0.86784672
 C           -2.01400594       -1.88987226       -1.02107578
 C            1.37547402       -3.11404473       -1.67380140
 C            2.42889508       -2.18350380       -2.03423554
 C            0.06037713       -2.74296680       -1.92738898
 C            2.22992535        0.19097595       -2.51465439
 C            2.12182187       -1.19333695       -2.94535651
 C            0.63474904        2.03927189       -2.79432514
 C            1.32476405        0.96440823       -3.34320597
 C           -0.45739514        2.54702052       -3.50339065
 C           -1.29526550        3.50258360       -1.38964329
 C           -2.42033314        2.90890536       -0.68609377
 C           -1.48295364        3.27744833       -2.79793200
 C           -3.08199835        0.66851086       -1.38081741
 C           -3.08046920        2.03691413       -1.63066895
 C           -2.72630172        2.54044365       -2.94967997
 C           -2.42613803       -1.51688133       -2.29019055
 C           -3.09894385       -0.23910959       -2.44513809
 C           -0.18447076       -2.01885181       -3.09450080
 C            0.86662650       -1.29629931       -3.66508537
 C            0.61783953        0.02507211       -4.20740940
 C           -1.49264604       -1.65814896       -3.38985909
 C           -1.14660590        1.68859125       -4.45230179
 C           -2.54084690        1.60591727       -4.03884257
 C           -2.84717832        0.21213842       -3.80462249
 C           -0.65838912        0.33752578       -4.65000724
 C           -1.74242488       -0.57405012       -4.32707291
