   70
C70 / DATE: 7/ 1/2024 / Origin: Program Fullerene / C70 from database
 C            1.41261071        0.12232448        4.75082496
 C            2.62982095       -0.00220257        3.97660197
 C            2.61031132       -1.29645935        3.30778165
 C            0.59570126       -1.04790765        4.47990609
 C            1.30838856       -1.88480942        3.52403989
 C           -0.74379896       -0.59333623        4.13224613
 C            0.58355643        1.29388091        4.55694453
 C           -0.77474577        0.84543898        4.28311487
 C            0.93415883        2.25055824        3.52141690
 C            2.93419901        0.99425567        2.96491334
 C            2.02253245        2.01443615        2.67630102
 C            3.05662402       -1.09123505        1.94366396
 C            3.55195450        0.27184697        1.87000798
 C            2.29194372       -1.59344176        0.88811445
 C            0.59732568       -2.37260620        2.43494335
 C            1.17928341       -2.39310160        1.15868991
 C           -1.35484931       -1.16662865        3.02396853
 C           -0.78555765       -2.32712418        2.51919013
 C           -2.11208522       -0.37316703        2.15206807
 C           -1.28804976        1.64395106        3.18553207
 C           -0.32009094        2.70013194        2.94752446
 C           -1.87745312        1.00306234        2.09448881
 C           -0.29726345        3.29763293        1.70292237
 C            2.04582323        2.61129521        1.41155210
 C            0.97143499        3.39858014        1.00257110
 C            3.60489877        0.87757850        0.63167903
 C            2.96516648        2.17149048        0.46163891
 C            2.44186705       -1.03185459       -0.38047329
 C            3.25574796        0.08743648       -0.53225693
 C            1.54625092       -1.35907496       -1.40064570
 C            0.41443969       -2.89197152        0.09823150
 C            0.56926284       -2.34285395       -1.18599934
 C           -1.50457708       -3.03548712        1.58301981
 C           -0.77952405       -3.52779713        0.43267398
 C           -2.73357394       -1.00579284        1.07182777
 C           -2.68602114       -2.40002464        1.04914931
 C           -2.88726401       -0.30290754       -0.13137014
 C           -1.90805151        1.65257166        0.85820540
 C           -1.28373954        2.88551240        0.72180250
 C           -2.28018635        0.94291288       -0.28363238
 C            0.66091191        3.52255208       -0.41320247
 C           -0.76618043        3.26791396       -0.57060387
 C            2.66647154        2.31033862       -0.95612662
 C            2.96288701        1.02968984       -1.58786458
 C            1.54379118        3.02754700       -1.37213063
 C            1.58599322       -0.64546023       -2.60606557
 C            2.17513921        0.62478284       -2.65028009
 C            0.82288446       -1.08057446       -3.68338571
 C           -0.29930494       -2.71582343       -2.23000629
 C           -0.22233032       -2.05799348       -3.45760947
 C           -1.77187326       -3.78402952       -0.58547334
 C           -3.00235279       -3.12044187       -0.16416093
 C           -1.49823081       -3.36452731       -1.93646963
 C           -3.44641057       -0.92733778       -1.24225340
 C           -3.50673406       -2.37490704       -1.29200621
 C           -2.73059339       -2.79141335       -2.44213080
 C           -1.45231733       -1.53959239       -4.05530675
 C           -3.06368240       -0.47909430       -2.56720150
 C           -2.61978663       -1.65159330       -3.32060378
 C           -1.98081901        1.44119740       -1.56706346
 C           -1.19243489        2.59578152       -1.70501149
 C           -2.35978176        0.71641529       -2.71149813
 C            1.04430734        2.77826801       -2.64938603
 C            1.55980837        1.63514696       -3.37786761
 C           -0.39635330        2.74410355       -2.83105210
 C            0.29439978       -0.10318561       -4.61838790
 C           -1.14797466       -0.24038523       -4.60588968
 C           -1.67959721        0.91773116       -3.91442425
 C            0.58056947        1.29586850       -4.38736932
 C           -0.66687672        1.94390913       -4.00234743
