   70
C70 / DATE: 7/ 1/2024 / Origin: Program Fullerene / C70 from database
 C            1.33622784        0.12736406        4.80751364
 C            0.55600810       -1.08861985        4.68151323
 C            1.36600550       -2.07404594        4.00136656
 C            2.57034863       -0.06703138        4.06769128
 C            2.60256332       -1.43181525        3.59241462
 C            2.65725288        0.99014281        3.08660274
 C            0.59458366        1.19984102        4.15943407
 C            1.44955077        1.78728045        3.15857093
 C           -0.71341860       -0.73186083        4.08616489
 C           -0.67981831        0.67405887        3.73107730
 C           -1.30378236       -1.58829299        3.17250294
 C            0.80382531       -2.72565928        2.83450105
 C           -0.54921782       -2.60220518        2.56194262
 C            2.76786055       -1.65948711        2.16717505
 C            1.72210018       -2.56215661        1.72490701
 C            3.13661824        0.70952127        1.81643547
 C            3.11049263       -0.60754337        1.33049512
 C            2.98867482        1.71812080        0.87842226
 C            0.89709113        2.19994552        1.95042687
 C            1.78562168        2.44047573        0.90348404
 C           -1.18574420        1.03938232        2.48173233
 C           -0.42777302        1.86140523        1.63123020
 C           -2.35290256       -1.06246516        2.43443893
 C           -2.19258389        0.23903782        1.93234688
 C           -3.09886625       -1.97891847        1.71456988
 C           -0.97768279       -3.04071776        1.31430073
 C           -2.35178413       -3.07138644        1.12552993
 C            1.18843303       -2.40844966        0.44002552
 C           -0.13740791       -2.80106942        0.21172602
 C            2.92584352       -0.79499845       -0.03907336
 C            1.81699091       -1.53986664       -0.46563858
 C            3.60447337        1.49855913       -0.33987617
 C            3.47312394        0.16235494       -0.88344053
 C            3.37007902        2.44039460       -1.40589032
 C            1.28661674        2.98470489       -0.27837458
 C            2.19012655        3.26637540       -1.30474195
 C           -0.88007636        2.10051784        0.32853238
 C           -0.07949237        2.83523377       -0.55176153
 C           -2.73117595        0.58126130        0.68705031
 C           -2.03688749        1.46352438       -0.14441654
 C           -4.02513136       -1.49060832        0.72511432
 C           -3.76228700       -0.18921424        0.14918456
 C           -2.87261371       -3.30553920       -0.19790323
 C           -4.05209206       -2.46893055       -0.34662303
 C           -0.68192266       -2.64830849       -1.07010428
 C           -1.99848988       -3.04644608       -1.32058882
 C            1.17512333       -1.21869914       -1.67166145
 C           -0.00887712       -1.87403818       -2.01965693
 C            2.96029559        0.30236226       -2.22928185
 C            3.24013398        1.67007501       -2.62788296
 C            1.72718101       -0.26178275       -2.53901941
 C            1.72012089        3.45341779       -2.65925866
 C            2.27480557        2.36088419       -3.45196078
 C           -0.59910941        3.19327600       -1.79267428
 C            0.29478145        3.48675938       -2.89560191
 C           -2.38064978        1.53796997       -1.50196256
 C           -1.69440017        2.41509789       -2.33731062
 C           -3.86417916       -0.32731123       -1.29262079
 C           -3.91217914       -1.74915418       -1.59330098
 C           -2.78860119       -2.32681612       -2.30650359
 C           -3.05731660        0.46872479       -2.09045892
 C           -0.67655387       -1.49803614       -3.18192566
 C           -2.12559629       -1.50513689       -3.19653701
 C           -2.51451716       -0.10754577       -3.23736087
 C            0.95639879        0.28423659       -3.57683995
 C            1.15327612        1.61053747       -3.96897461
 C            0.01792694        2.50995149       -3.93128682
 C           -1.27930383        1.93542045       -3.65002328
 C           -0.27818820       -0.28233324       -3.86437287
 C           -1.44993341        0.58827488       -3.92351400
