   70
C70 / DATE: 7/ 1/2024 / Origin: Program Fullerene / C70 from database
 C            1.35759420        0.01696337        4.74243087
 C            2.61116436       -0.06499276        4.01913779
 C            2.66830394       -1.36995626        3.38411347
 C            0.54986183       -1.13358486        4.36739875
 C            1.35469480       -1.97779699        3.50590399
 C           -0.71967647       -0.64416332        3.85908884
 C            0.53856970        1.19618995        4.56911381
 C           -0.79837738        0.75890666        4.19060192
 C            0.94082892        2.19970749        3.59982869
 C            2.90881740        0.92457978        2.99630418
 C            1.99699320        1.94575373        2.71956213
 C            3.22257286       -1.19303450        2.04752458
 C            3.54142171        0.21648797        1.89689502
 C            2.62941696       -1.88009864        0.98773024
 C            0.78009811       -2.49719554        2.35536435
 C            1.62375265       -2.79517324        1.29376846
 C           -1.13707214       -1.06854295        2.60141628
 C           -0.55803459       -2.21519030        2.06678548
 C           -1.82353883       -0.19590668        1.74791831
 C           -1.27910125        1.67702153        3.18061094
 C           -0.29437545        2.73968594        3.07424341
 C           -1.84908787        1.17907840        2.00915388
 C           -0.24775191        3.45449213        1.89527456
 C            1.99720395        2.54679025        1.45513246
 C            0.98008958        3.43544830        1.11376966
 C            3.50349273        0.77763291        0.63312284
 C            2.81161110        2.04008941        0.44343647
 C            2.68520813       -1.34587587       -0.30714461
 C            3.18785582       -0.06637775       -0.50709596
 C            1.93848091       -1.94631531       -1.32447040
 C            1.09891018       -3.56690499        0.27445880
 C            1.46002874       -3.22799895       -1.08406499
 C           -1.10347985       -2.76893068        0.91275353
 C           -0.33734035       -3.73524007        0.26245203
 C           -2.22358667       -0.66559382        0.49305241
 C           -2.02708258       -2.01366447        0.17956973
 C           -2.65125128        0.23542381       -0.49614574
 C           -2.03518839        2.06548959        0.95145231
 C           -1.32875847        3.27068333        0.95133410
 C           -2.58845647        1.61450765       -0.24601827
 C            0.59839543        3.58576566       -0.28631257
 C           -0.84161220        3.79542180       -0.30496995
 C            2.35457211        2.08310206       -0.93811749
 C            2.57460362        0.77062145       -1.51742716
 C            1.18650192        2.76875807       -1.25471500
 C            1.33094610       -1.14275704       -2.30750231
 C            1.58878248        0.23452254       -2.33197898
 C            0.39560168       -1.68720527       -3.20776782
 C            0.43188195       -3.78556860       -1.93462743
 C           -0.68659122       -4.15774636       -1.07486889
 C           -0.09771191       -2.97552147       -3.00477522
 C           -2.56070112       -2.52426099       -0.99921187
 C           -1.89240559       -3.62648410       -1.66605080
 C           -1.53549802       -3.16750415       -2.99271663
 C           -3.07830207       -0.24099507       -1.74990716
 C           -2.98934254       -1.60388693       -2.03359727
 C           -2.36268494       -2.02136594       -3.28739066
 C           -3.14066824        0.62954386       -2.83814273
 C           -2.62846556        2.51588001       -1.30903489
 C           -1.54099472        3.46449569       -1.44600601
 C           -2.90772610        2.03938857       -2.64315250
 C            0.42773187        2.35688218       -2.35626534
 C            0.67695202        1.09864627       -2.92979799
 C           -0.78724904        3.00303939       -2.58857401
 C           -1.76784710        2.41266270       -3.47535750
 C           -0.36480670       -0.82935496       -4.00851891
 C           -1.80988623       -1.03748361       -4.08848296
 C           -2.43412873        0.26461449       -4.05025614
 C           -0.13272373        0.60239985       -3.94436602
 C           -1.39143529        1.25199569       -4.24587210
