   70
C70 / DATE: 7/ 1/2024 / Origin: Program Fullerene / C70 from database
 C            1.54598816        0.16190381        4.81208956
 C            0.77498452       -1.06251831        4.72811838
 C            1.62010640       -2.06013581        4.11299893
 C            2.72002632        0.00069128        3.96641361
 C            2.78358413       -1.38222791        3.55945211
 C            2.66076418        1.01753756        2.93705198
 C            0.73980159        1.22720762        4.24464278
 C            1.54128984        1.88611569        3.24294923
 C           -0.49495115       -0.75275962        4.09203035
 C           -0.52973502        0.67489929        3.82142262
 C           -1.00598553       -1.61323821        3.12656291
 C            1.04929245       -2.86369181        3.05552502
 C           -0.31401017       -2.79319330        2.80006717
 C            2.83315364       -1.68667108        2.14057264
 C            1.94620816       -2.81010777        1.91498298
 C            2.87186182        0.68360572        1.59534296
 C            2.85397940       -0.66167949        1.19872779
 C            2.54537834        1.65667057        0.64431975
 C            0.89816287        2.45109393        2.15958150
 C            1.67646701        2.68026576        1.04082536
 C           -1.06620229        1.11571799        2.61074329
 C           -0.46140098        2.18996896        1.94992219
 C           -1.94330285       -1.09794752        2.22932504
 C           -1.89671732        0.25884623        1.88636260
 C           -2.65945466       -1.98330691        1.44124970
 C           -0.74965014       -3.52988295        1.70697621
 C           -2.07440899       -3.27990321        1.18399441
 C            1.39220144       -2.99186020        0.64961587
 C            0.15911599       -3.64159810        0.57408091
 C            2.50467230       -0.97168843       -0.11310807
 C            1.75555413       -2.12505727       -0.38513922
 C            2.66426225        1.34469220       -0.71402730
 C            2.64854934        0.00288103       -1.09792554
 C            2.42364625        2.34130649       -1.65877621
 C            1.14499913        3.53375617        0.09428531
 C            1.69065927        3.51781794       -1.24334056
 C           -1.04181967        2.67483132        0.77377074
 C           -0.30085620        3.57273375       -0.00535135
 C           -2.45697047        0.70582844        0.68196275
 C           -2.10154751        1.97362775        0.19030927
 C           -3.24152375       -1.51809432        0.20283983
 C           -3.25714159       -0.15981989       -0.08353704
 C           -2.02164140       -3.46507277       -0.25493454
 C           -0.63111370       -3.54315193       -0.64293604
 C           -2.83249312       -2.43066138       -0.85553342
 C            1.12437690       -2.24785579       -1.62196923
 C           -0.18670952       -2.72305173       -1.67132717
 C            2.41766155       -0.34828876       -2.42731057
 C            1.63309612       -1.53803884       -2.70006474
 C            1.94622083        1.98467021       -2.98247941
 C            2.04255243        0.66779764       -3.39693096
 C            0.59147980        3.71825415       -2.17182644
 C           -0.63859455        3.79009671       -1.40263145
 C            0.70756103        2.71707845       -3.21652078
 C           -2.62543538        2.43262989       -1.01805413
 C           -1.77651390        3.19372138       -1.91509256
 C           -3.56250929        0.17370196       -1.39749866
 C           -3.40034329        1.53468228       -1.84224706
 C           -2.43063184       -1.87603826       -2.06558602
 C           -1.12231388       -2.10658950       -2.51526559
 C           -3.08235328       -0.70717486       -2.44925927
 C            0.76139971       -1.25489276       -3.82323838
 C            0.98610575        0.12223795       -4.22878485
 C           -0.66674090       -1.44693415       -3.65388453
 C           -0.43541144        2.03516904       -3.63336914
 C           -1.68390194        2.44088125       -3.15837355
 C           -2.79226972        1.50412826       -3.16558674
 C           -2.54258615        0.11771669       -3.51523924
 C           -0.30131465        0.79414310       -4.25712103
 C           -1.32660679       -0.22577563       -4.08484496
