   70
C70 / DATE: 7/ 1/2024 / Origin: Program Fullerene / C70 from database
 C            1.19410797        0.04583046        4.22862072
 C            2.50269202       -0.31985251        3.74265883
 C            2.46663343       -1.73660348        3.41026527
 C            0.36930517       -1.15239796        4.20014426
 C            1.07245282       -2.14457752        3.42395030
 C           -0.94037758       -0.75412347        3.75602886
 C            0.45813676        1.08189767        3.53092527
 C           -0.93123576        0.68986037        3.58571825
 C            0.94668648        1.59928455        2.33756564
 C            3.02948003        0.37248479        2.58635404
 C            2.25075690        1.31656078        1.91085057
 C            3.23496140       -1.91947668        2.19185617
 C            3.75837409       -0.61482866        1.81441289
 C            2.72561180       -2.75817991        1.20960757
 C            0.49693202       -2.63204125        2.24910137
 C            1.33853420       -3.19722067        1.29943962
 C           -1.58913767       -1.50944355        2.78858822
 C           -0.81725442       -2.27268868        1.89452933
 C           -2.80066921       -0.99078457        2.36412278
 C           -1.82482623        1.22008687        2.66394309
 C           -2.95925955        0.45343324        2.42077205
 C            0.04959215        2.18282495        1.44661730
 C           -1.33878113        2.04874027        1.63874049
 C            0.54721200        2.85512521        0.33378409
 C            2.64465976        1.70394287        0.62770059
 C            1.84771060        2.58319346       -0.10979343
 C            4.01320454       -0.33763474        0.48103437
 C            3.62305271        0.95994704       -0.03819542
 C            3.01581456       -2.48565272       -0.18925844
 C            3.67829497       -1.31981916       -0.54262775
 C            0.85875805       -3.40920876       -0.04463992
 C            1.86765983       -2.91221731       -0.96797979
 C           -1.30144766       -2.54960385        0.59585849
 C           -0.47341447       -3.18274637       -0.34808907
 C           -3.38203368       -1.44348760        1.12398218
 C           -2.60644775       -2.17048772        0.23299186
 C           -3.86282816        0.84236893        1.36708986
 C           -4.20203335       -0.35440468        0.61511737
 C           -2.22832880        2.52994692        0.66228588
 C           -3.42193958        1.84855323        0.43036839
 C           -0.32620715        3.61224012       -0.43782891
 C           -1.73757957        3.29807017       -0.38855700
 C           -0.01086475        3.89137651       -1.82482859
 C            2.20332253        2.82943251       -1.43864576
 C            1.25559650        3.43870037       -2.34843256
 C            3.54101429        0.81183719       -1.47773613
 C            3.24011107       -0.58854746       -1.72096515
 C            2.84680127        1.77067988       -2.18846088
 C            1.45215626       -2.17712869       -2.07842997
 C            2.03814344       -0.93218531       -2.34271800
 C           -0.77771498       -3.09318730       -1.70155599
 C            0.18638863       -2.45704314       -2.58496791
 C           -2.99227765       -2.16515930       -1.10772348
 C           -2.09574713       -2.68123460       -2.11238372
 C           -4.13212247       -0.02780806       -0.79809648
 C           -3.68333226        1.35185060       -0.91010229
 C           -3.61543632       -0.97464971       -1.66545841
 C           -2.14038725        2.93704074       -1.74124968
 C           -1.05641875        3.28711213       -2.63323300
 C           -2.80553896        1.72886398       -1.92272257
 C            0.98156015        2.45730417       -3.39084496
 C            1.86610092        1.32900841       -3.16032942
 C            1.31894578        0.05504978       -3.02935366
 C           -0.44967809        2.22802930       -3.40865900
 C           -0.52264942       -1.43732632       -3.33240871
 C           -1.94256799       -1.65850866       -3.13729568
 C           -2.77740964       -0.53260252       -2.76406850
 C           -2.21461190        0.74013471       -2.72277214
 C           -0.03285941       -0.14120997       -3.31276668
 C           -0.92734644        0.93326069       -3.24184691
