   70
C70 / DATE: 7/ 1/2024 / Origin: Program Fullerene / C70 from database
 C            1.31727944        0.03287724        4.99218049
 C            0.53971627       -1.14710276        4.65064834
 C            1.42700908       -2.08361733        4.00470037
 C            2.61166745       -0.08920793        4.34392628
 C            2.71746537       -1.43111912        3.82702504
 C            2.74860995        1.01336571        3.41388938
 C            0.64275672        1.18537298        4.42020198
 C            1.55461995        1.84151353        3.51430534
 C           -0.63931249       -0.70850109        3.92919705
 C           -0.61939713        0.74014059        3.88678108
 C           -1.05304664       -1.38117690        2.77640759
 C            1.03326630       -2.62729748        2.72032591
 C           -0.21545334       -2.33549209        2.18252515
 C            3.10219711       -1.60067498        2.44056965
 C            2.18401387       -2.55637371        1.84406967
 C            3.29985180        0.80454334        2.14904975
 C            3.50858644       -0.50610753        1.67699407
 C            3.15334527        1.85024724        1.23974091
 C            1.05229213        2.41154441        2.34643255
 C            1.97421046        2.69589617        1.34775472
 C           -1.10175214        1.33271959        2.73310007
 C           -0.29139932        2.20760076        1.99073110
 C           -1.99954195       -0.74024454        1.96581986
 C           -2.10358018        0.65060004        2.06180618
 C           -2.44466151       -1.38418490        0.80498714
 C           -0.41630660       -2.63405824        0.84278211
 C           -1.68255430       -2.44641858        0.31165093
 C            1.97305608       -2.50098358        0.46902548
 C            0.67887624       -2.67311886       -0.02903564
 C            3.66592759       -0.73478230        0.31082891
 C            2.90092875       -1.81000537       -0.30505149
 C            3.43092233        1.65055191       -0.16848240
 C            3.70595180        0.37263043       -0.62500563
 C            1.51452304        2.99483186        0.00674696
 C            2.52311603        2.50553498       -0.91693959
 C           -0.74857720        2.62504585        0.72968625
 C            0.16678480        2.84381265       -0.30418514
 C           -2.79622839        1.35180849        1.09574502
 C           -2.08970635        2.42024313        0.41463576
 C           -3.37750589       -0.74321676       -0.02223981
 C           -3.56787760        0.62750470        0.11137715
 C           -3.82244303       -1.36756802       -1.18548280
 C           -1.90641304       -2.92419938       -0.97023901
 C           -3.10141079       -2.52089705       -1.67588407
 C            0.45411489       -2.53802116       -1.40114916
 C           -0.79541381       -2.88199644       -1.90195434
 C            2.54423130       -1.39555260       -1.65233098
 C            3.12943167       -0.08577889       -1.87982309
 C            1.26874914       -1.67741550       -2.13674843
 C            2.12998715        2.13829674       -2.19287773
 C            2.46078269        0.81162556       -2.69676853
 C           -0.21128406        2.65911481       -1.64204209
 C            0.76852106        2.42134500       -2.60678594
 C           -2.51150590        2.40392046       -0.97424258
 C           -3.62038042        1.46391237       -1.07426082
 C           -1.55179939        2.45201833       -1.97912888
 C           -4.16824808       -0.55249962       -2.34111902
 C           -3.91455331        0.87841276       -2.29680860
 C           -2.72511984       -2.25705332       -3.05431711
 C           -1.27108715       -2.23286083       -3.10760037
 C           -3.47181786       -1.09837282       -3.49672820
 C            0.70991594       -0.86841388       -3.13558375
 C            1.31583031        0.34600119       -3.46029241
 C            0.47736934        1.50576694       -3.69057310
 C           -0.59807687       -1.10330844       -3.57025311
 C           -1.86975730        1.96920082       -3.25041028
 C           -3.10188983        1.22035638       -3.44921662
 C           -2.75201358       -0.01646715       -4.13284666
 C           -0.84490145        1.29603241       -4.02906736
 C           -1.30089106       -0.07030025       -4.20017352
