   70
C70 / DATE: 7/ 1/2024 / Origin: Program Fullerene / C70 from database
 C            1.26329075        0.04364395        4.30540178
 C            2.52105318       -0.19430378        3.63411915
 C            2.53759245       -1.59036624        3.24389202
 C            0.42412306       -1.13236093        4.11564440
 C            1.17352518       -2.08317329        3.32839250
 C           -0.85653250       -0.67983141        3.61887682
 C            0.48130545        1.19073380        3.90205562
 C           -0.90017236        0.75712207        3.79256900
 C            0.97108737        2.05872028        2.92906294
 C            2.83586467        0.59063857        2.45384803
 C            1.96952041        1.60953035        2.05102561
 C            3.21415639       -1.68055158        1.96503360
 C            3.36448055       -0.32509621        1.45484307
 C            2.79405622       -2.66477085        1.08809405
 C            0.60265270       -2.63830309        2.18606179
 C            1.46777086       -3.23793719        1.27828762
 C           -1.36105336       -1.20945505        2.44259125
 C           -0.65488447       -2.20111814        1.74029911
 C           -2.38962212       -0.51813178        1.81165909
 C           -1.74261813        1.51030407        2.98135498
 C           -2.57572325        0.84804422        2.06631399
 C            0.09367341        3.04679382        2.50226211
 C           -1.32602135        2.81120744        2.70264940
 C            0.24006973        3.60492082        1.17409019
 C            1.91340023        1.94876700        0.69256926
 C            1.03121293        2.93749824        0.25049251
 C            3.10794873       -0.06570546        0.11138086
 C            2.62834897        1.19226947       -0.24324083
 C            2.93988134       -2.43103773       -0.33273370
 C            3.01980382       -1.12330980       -0.80386068
 C            0.97743483       -3.63537966       -0.02493817
 C            2.03762175       -3.35578875       -0.98405080
 C           -1.16936703       -2.68195335        0.52571115
 C           -0.34258094       -3.36991155       -0.37103439
 C           -3.05895749       -1.13002797        0.76085583
 C           -2.43243559       -2.26458988        0.10550432
 C           -3.67814760       -0.31361010       -0.27003511
 C           -3.40811199        1.59159052        1.22561438
 C           -3.78177668        1.04957313       -0.06753837
 C           -2.04318272        3.61145661        1.73300001
 C           -1.07054427        4.07923095        0.75733479
 C           -3.14023079        3.00178777        1.01489386
 C           -3.23296921        1.94096111       -1.07552435
 C           -1.55338045        3.71159164       -0.56108398
 C           -2.89692019        3.18710083       -0.40717547
 C            0.66607634        2.97439323       -1.09315223
 C           -0.68676522        3.05958229       -1.42802568
 C            2.56089471        1.52507380       -1.59059825
 C            1.55420629        2.47338874       -2.03242525
 C            2.68206128       -0.86046983       -2.13557327
 C            2.63739291        0.46006040       -2.57466736
 C            1.69843359       -3.12403607       -2.30584955
 C            2.08908472       -1.86144482       -2.91569867
 C           -0.70311542       -3.46608703       -1.71505667
 C            0.33973101       -3.41269719       -2.72574533
 C           -2.71277184       -2.14535546       -1.31603199
 C           -3.16921521       -0.78903643       -1.54133994
 C           -1.82599957       -2.69791111       -2.21908961
 C           -2.35290870        1.42676261       -2.02744744
 C           -1.21448603        2.16286184       -2.35823184
 C           -2.40693989        0.06423595       -2.33982062
 C            1.02512024        2.00475846       -3.29908044
 C            1.75663788        0.80986601       -3.67472381
 C           -0.39333366        1.71075454       -3.38092158
 C            1.06797413       -1.51140377       -3.89636532
 C           -0.04796864       -2.41720601       -3.71116211
 C           -1.32935161       -1.86853056       -3.30490738
 C           -1.48902065       -0.48320844       -3.24234370
 C            0.79684842       -0.17328037       -4.13356655
 C           -0.53722761        0.34215633       -3.84274464
