   70
C70 / DATE: 7/ 1/2024 / Origin: Program Fullerene / C70 from database
 C            1.57984948        0.02118692        4.47661645
 C            0.77099070       -1.17610535        4.37130793
 C            1.33497911       -2.01774393        3.32913935
 C            2.62529192       -0.06434809        3.47326693
 C            2.45986889       -1.30479984        2.74751963
 C            2.60256247        1.16547313        2.71529164
 C            0.73224339        1.14936624        4.12903580
 C            1.40702664        1.89454954        3.09312151
 C           -0.61002729       -0.75834295        4.23493092
 C           -0.59400302        0.64392771        3.84647804
 C           -1.46764658       -1.60807408        3.56267291
 C            0.45910720       -2.69525088        2.48401245
 C           -0.89697566       -2.72298274        2.82098029
 C            0.84127809       -2.93799653        1.16120394
 C            2.58713346       -1.28413307        1.36513233
 C            1.95272304       -2.27668937        0.62614418
 C            2.90549606        1.12208414        1.36051314
 C            3.02833195       -0.11933411        0.72030130
 C            2.53064482        2.22143895        0.59526532
 C            0.66030357        2.44632655        2.06313042
 C            1.36864673        2.90943607        0.96064296
 C           -1.22750835        1.03410094        2.66368077
 C           -0.67271629        2.04722707        1.87510098
 C           -2.46968026       -1.02707537        2.69524362
 C           -2.24326706        0.23360075        2.13950875
 C           -1.88476430       -3.11458969        1.82696856
 C           -2.93636312       -2.10524486        1.84531852
 C           -0.03035510       -3.62356574        0.31581452
 C           -1.45144780       -3.63741795        0.61673468
 C            0.11005129       -3.50053227       -1.12472377
 C            2.25065060       -2.39285435       -0.72537692
 C            1.25289301       -2.91904032       -1.64119783
 C            3.25083167       -0.14435462       -0.66321681
 C            2.91954594       -1.28860403       -1.39261361
 C            3.01220204        2.29411583       -0.70357940
 C            3.43531515        1.06125959       -1.34185002
 C            2.32957097        3.10973552       -1.69255282
 C            0.67275687        3.65979942        0.02621017
 C            1.17865855        3.79261359       -1.32870279
 C           -1.33976671        2.45805390        0.71686527
 C           -0.76513943        3.48095001       -0.03848983
 C           -2.81906943        0.54853908        0.90474448
 C           -2.32679448        1.62987891        0.15428490
 C           -3.59259144       -1.77304428        0.67310980
 C           -3.70004247       -0.36822245        0.32515172
 C           -2.16883488       -3.31417903       -0.60732558
 C           -1.18179772       -3.10140864       -1.65674729
 C           -3.29162644       -2.49851165       -0.55211822
 C           -1.27723345       -1.98322155       -2.48898711
 C            1.11682483       -1.96007738       -2.71959274
 C            2.32439682       -1.16134865       -2.71840061
 C           -0.11634727       -1.34732073       -2.93595079
 C            3.07981898        1.14834964       -2.74781916
 C            2.35855772        2.39149177       -2.95612800
 C            2.30194539        0.07624092       -3.33495847
 C           -0.16546432       -0.02625709       -3.40772476
 C            1.10612622        2.07620786       -3.62337123
 C            1.02093231        0.62966117       -3.74839892
 C            0.03568767        3.78504545       -2.22528135
 C           -1.16510020        3.66270684       -1.41302605
 C           -0.03326426        2.79191089       -3.28715263
 C           -2.70834147        1.78385427       -1.19530465
 C           -1.35624997        0.70765357       -3.33531708
 C           -2.00297867        2.65627934       -2.01033189
 C           -1.29403834        2.08821489       -3.14636460
 C           -3.94757054       -0.31565304       -1.09504362
 C           -3.55440802       -1.59754609       -1.65890933
 C           -2.50104183       -1.34347377       -2.62847615
 C           -3.28981975        0.71299338       -1.85693549
 C           -2.52096758        0.07507066       -2.91347468
