   70
C70 / DATE: 7/ 1/2024 / Origin: Program Fullerene / C70 from database
 C            1.36446528       -0.06954879        4.47737176
 C            2.65846435       -0.29440475        3.86172974
 C            2.67835693       -1.65571644        3.35974622
 C            0.54270137       -1.24507293        4.23564503
 C            1.34176673       -2.21000190        3.50564535
 C           -0.70762888       -0.80346936        3.65122177
 C            0.59726046        1.09626629        4.08029329
 C           -0.73136421        0.64849451        3.69462490
 C            1.20991133        2.08808072        3.32687749
 C            3.08523140        0.58131912        2.78367763
 C            2.44344959        1.79733600        2.60194623
 C            3.27448878       -1.63502886        2.03489492
 C            3.36104056       -0.24411615        1.61866604
 C            2.83661847       -2.57278326        1.11510276
 C            0.77940229       -2.86588080        2.41438633
 C            1.64323413       -3.33966311        1.42944191
 C           -1.17904574       -1.44770984        2.51377674
 C           -0.55957485       -2.62475748        2.08299687
 C           -2.02326004       -0.75251655        1.64576115
 C           -1.41784449        1.33468578        2.69629754
 C           -2.26054715        0.60791542        1.85015767
 C            0.38379364        2.90725700        2.46047525
 C           -0.96309156        2.59948169        2.30101092
 C            2.28162163        2.30631444        1.25240447
 C            1.16105866        3.22314352        1.27481226
 C            2.86551278        0.13625133        0.36781324
 C            2.41983775        1.44782049        0.16610008
 C            2.71775209       -2.18466277       -0.27698180
 C            2.63835239       -0.83622517       -0.61268589
 C            1.09893346       -3.82023319        0.17456572
 C            1.79225664       -3.11356958       -0.89732601
 C           -1.13412684       -3.33357154        1.03068615
 C           -0.26951525       -4.01497225        0.07957004
 C           -2.48798657       -1.37046887        0.48439600
 C           -2.21220089       -2.71532124        0.27837658
 C           -2.92590653       -0.58844150       -0.58576903
 C           -3.09002212        1.28893240        0.96696491
 C           -3.37355502        0.69751303       -0.32992893
 C           -1.64654387        3.27914628        1.29850903
 C           -2.86620634        2.70400867        0.76927947
 C            0.47864791        3.46797798        0.09095361
 C           -0.87704406        3.78915226        0.17358291
 C            1.80426873        1.79074819       -1.03709241
 C            0.97119963        2.91919947       -1.09290027
 C            2.02276660       -0.47781075       -1.81215213
 C            1.81800942        0.87400568       -2.08772881
 C            1.08184756       -2.69415112       -2.01645136
 C            1.39270813       -1.46132152       -2.59067046
 C           -0.88841560       -3.92497085       -1.22800728
 C           -2.14710713       -3.21263988       -1.08110707
 C           -0.15407526       -3.27764503       -2.29802885
 C           -2.57288750       -0.93587006       -1.89136507
 C           -2.24079020       -2.25993205       -2.17454771
 C           -1.13015467       -2.52993079       -3.07136729
 C           -2.23016235        0.06499989       -2.80908739
 C           -3.18684839        1.71989121       -1.34369706
 C           -2.91083137        2.97220738       -0.65833104
 C           -1.71453046        3.71380626       -1.01495883
 C           -2.46998017        1.41096068       -2.49724598
 C            0.31684878        3.23562664       -2.27850494
 C           -1.11874516        3.44793955       -2.23857657
 C           -1.69871514        2.41942157       -3.08393194
 C            1.39476880        1.26522954       -3.35148806
 C            0.60059957        2.46840886       -3.47633033
 C           -0.67856354        2.08526227       -4.05722617
 C            0.70799998       -1.09257969       -3.74501492
 C           -0.67883449       -1.50110490       -3.87852520
 C           -1.44787803       -0.27325705       -3.91594347
 C            0.79383284        0.27528072       -4.21839602
 C           -0.56502478        0.71526518       -4.49839369
