   70
C70 / DATE: 7/ 1/2024 / Origin: Program Fullerene / C70 from database
 C            1.29885238        0.03744931        4.52732845
 C            2.54568508       -0.30065742        3.88128391
 C            2.55047184       -1.73649340        3.66389003
 C            0.44344759       -1.13923210        4.50499582
 C            1.22671203       -2.24730604        3.99615439
 C           -0.78817225       -0.77727497        3.81836351
 C            0.53090332        1.13053988        3.97920595
 C           -0.82898410        0.66361723        3.77249688
 C            1.08576798        1.93909910        2.99119978
 C            2.86824950        0.34610698        2.61946884
 C            2.06862941        1.39429328        2.15031625
 C            3.09409601       -1.98145499        2.33684956
 C            3.28420379       -0.69254650        1.69153528
 C            2.59411547       -3.03952948        1.59292427
 C            0.61855218       -3.13899384        3.12487161
 C            1.42791003       -3.75220338        2.08808471
 C           -1.17429446       -1.49667590        2.69620077
 C           -0.66285159       -2.78111307        2.52425087
 C           -1.75443392       -0.82539786        1.61088631
 C           -1.55961278        1.29936812        2.78123033
 C           -2.05508611        0.54341086        1.70351347
 C            0.23216680        2.90370901        2.47570534
 C           -1.18989090        2.61577329        2.54784366
 C            0.47003764        3.42434158        1.14786441
 C            2.01302483        1.62933369        0.76698095
 C            1.21196412        2.65950480        0.26019806
 C            2.97390898       -0.53688428        0.34694224
 C            2.63953453        0.73503252       -0.10638026
 C            2.43806142       -2.88531224        0.15583342
 C            2.66844154       -1.65021003       -0.44617222
 C            0.56039911       -4.02344034        0.95954012
 C           -0.72666122       -3.40499478        1.21966862
 C            1.26349714       -3.63387205       -0.24890161
 C           -1.97479250       -1.51042665        0.40962318
 C           -1.32831381       -2.72662336        0.17293328
 C           -2.57939548       -0.85880109       -0.66943672
 C           -2.62693929        1.20264165        0.60166596
 C           -2.88381016        0.50158700       -0.58150207
 C           -1.83719851        3.34383467        1.49186139
 C           -0.78982816        3.98191543        0.70703225
 C           -2.66120640        2.59942689        0.57029933
 C           -1.16041871        3.83176739       -0.68150075
 C           -2.50574653        3.27655683       -0.69842984
 C            0.95014362        2.73700601       -1.11468278
 C           -0.22693877        3.33943297       -1.58928365
 C            2.58102026        0.94886008       -1.47476883
 C            1.76709689        2.03138463       -1.99109367
 C            2.17123118       -1.44325363       -1.73693088
 C            2.39021303       -0.20367739       -2.33384078
 C            0.51158611       -3.12508211       -1.29746156
 C           -0.86467011       -2.99067153       -1.10915309
 C            1.14046246       -2.27055086       -2.20122631
 C           -2.59536811       -1.49687463       -1.91465093
 C           -1.63666812       -2.55669531       -2.17122269
 C           -2.72020231       -0.72006952       -3.13594201
 C           -3.24928257        1.20949909       -1.73346911
 C           -2.92263789        2.62210345       -1.84084338
 C           -3.03434084        0.62434043       -3.04584384
 C           -0.69262343        3.03834761       -2.86877750
 C           -2.11307906        2.78009564       -3.03519753
 C           -2.26098047        1.57636247       -3.82879190
 C            1.25710912        1.61912873       -3.28686245
 C            1.59202953        0.21554900       -3.47232129
 C            0.02850232        2.10023101       -3.71135664
 C           -0.94261706        1.19382185       -4.30910151
 C            0.45419153       -1.95069766       -3.36998313
 C           -0.96458508       -2.25244832       -3.42019121
 C           -1.64918599       -1.13062792       -4.03190166
 C            0.65375197       -0.65752220       -4.00149284
 C           -0.64515405       -0.15785761       -4.43032853
