   70
C70 / DATE: 7/ 1/2024 / Origin: Program Fullerene / C70 from database
 C            1.28890437       -0.04956134        4.50830142
 C            2.62032288       -0.27146244        3.97805694
 C            2.68367855       -1.64478711        3.51843240
 C            0.48840941       -1.22913261        4.21704084
 C            1.33782694       -2.19553186        3.55772664
 C           -0.71088744       -0.79508555        3.53968302
 C            0.54760561        1.11101250        4.05427952
 C           -0.74789851        0.65566237        3.57294510
 C            1.21104806        2.09775795        3.33743260
 C            3.09656065        0.57587171        2.89682339
 C            2.46357869        1.78373906        2.65499413
 C            3.38593032       -1.65312541        2.24698227
 C            3.40857310       -0.28141882        1.76490467
 C            3.05713654       -2.64931607        1.34838114
 C            0.87626939       -2.86061175        2.42498701
 C            1.84967938       -3.41778813        1.60366166
 C           -1.10301298       -1.43404773        2.37508822
 C           -0.37361270       -2.52301124        1.87125297
 C           -2.01389415       -0.78193624        1.55599987
 C           -1.35495084        1.34092862        2.51931284
 C           -2.05648184        0.61475946        1.54538336
 C            0.43592299        2.92806594        2.43736581
 C           -0.90676892        2.62990125        2.21892713
 C            2.32314573        2.22698743        1.28061341
 C            1.26603430        3.21293845        1.27906247
 C            2.88710575        0.01991989        0.49900580
 C            2.37285221        1.29439745        0.24840093
 C            3.01027849       -2.31486751       -0.05882485
 C            2.70458946       -1.00451342       -0.43444179
 C            1.46125291       -4.01095306        0.34743891
 C            2.29980361       -3.40828660       -0.67923309
 C           -0.80856937       -3.14487061        0.68662362
 C            0.08745164       -3.87754650       -0.08497914
 C           -2.62727994       -1.50096535        0.54669829
 C           -1.98240328       -2.71102306        0.07283679
 C           -3.17861602       -0.79727606       -0.59567406
 C           -2.65097199        1.28951077        0.47422450
 C           -3.03655237        0.58470481       -0.67386925
 C           -1.53875335        3.33159951        1.20101152
 C           -2.59135931        2.67624139        0.45186131
 C            0.61469281        3.49614604        0.09061753
 C           -0.68786297        3.96770625        0.21361109
 C            1.63338228        1.53753606       -0.91027503
 C            0.95534775        2.75726419       -1.04864449
 C            1.95623973       -0.76794853       -1.59933593
 C            1.47742383        0.52517228       -1.86672553
 C            1.45136729       -3.10871863       -1.80068399
 C            0.13220326       -3.64685087       -1.51737153
 C            1.51960524       -1.85234516       -2.37985735
 C           -2.07703001       -2.72207318       -1.38267148
 C           -2.94737309       -1.61646403       -1.77242180
 C           -0.95306979       -3.04720744       -2.14896851
 C           -2.77303835       -0.99789225       -3.00067746
 C           -3.05658265        1.21124260       -1.92970582
 C           -2.83581985        0.45201902       -3.08097616
 C           -2.69189345        3.36847192       -0.81676277
 C           -1.48488765        4.17048187       -0.97441676
 C           -2.85643220        2.58649770       -2.02240035
 C            0.34117111        3.06543430       -2.25850342
 C           -0.89296356        3.83406997       -2.25039621
 C           -1.88230471        3.07208046       -2.98340651
 C            0.79412431        0.78706617       -3.06274546
 C           -1.82352700        0.89543861       -4.03328266
 C            0.19630655        2.03094924       -3.26336633
 C           -1.17252856        2.09049683       -3.77444905
 C            0.60241915       -1.62632651       -3.39035465
 C           -0.67886144       -2.31332679       -3.30196991
 C           -1.68841997       -1.43488422       -3.85457531
 C            0.35188438       -0.27850970       -3.83765612
 C           -1.00552044       -0.25240635       -4.35034635
