   70
C70 / DATE: 7/ 1/2024 / Origin: Program Fullerene / C70 from database
 C            1.22364868       -0.07051984        4.91024965
 C            2.52011882       -0.45184507        4.39073632
 C            2.35314476       -1.72129013        3.68952977
 C            0.37357461       -1.24034451        4.81313141
 C            0.96147651       -2.10464311        3.80439131
 C           -0.97432460       -0.75841471        4.60018866
 C            0.50583773        1.02136347        4.26868793
 C           -0.89454920        0.66966619        4.31498946
 C            1.02712329        1.59599391        3.10953320
 C            3.17656511        0.45872703        3.47863186
 C            2.40204495        1.54205990        2.89562027
 C            2.92660053       -1.57255765        2.36700346
 C            3.67355739       -0.33578729        2.37151488
 C            2.15090482       -1.85858976        1.24765819
 C            0.23152910       -2.38313724        2.64940896
 C            0.87650531       -2.41070762        1.40054109
 C           -1.75003862       -1.35263074        3.53296964
 C           -1.16406998       -2.30713620        2.70611924
 C           -1.71471064        0.92555166        3.14846090
 C           -2.48616634       -0.27518578        2.90262452
 C            0.18117405        1.94628130        2.04430889
 C           -1.17286461        1.58759556        2.05316333
 C            0.73065675        2.46983523        0.86917101
 C            2.90861324        1.71771612        1.55366753
 C            3.59419166        0.49414134        1.19026209
 C            2.08713036        2.27195399        0.58649245
 C            2.50335742       -1.29417215        0.01924214
 C            3.21602265       -0.08547173       -0.01158260
 C            1.83887556       -1.71656891       -1.13365370
 C            0.14906146       -2.75546827        0.25946466
 C            0.64654409       -2.43771415       -1.01057404
 C           -1.89599822       -2.69152440        1.59343473
 C           -1.18877181       -3.11173316        0.40310888
 C           -2.96267952       -0.49332214        1.61865982
 C           -2.95861978       -1.80548986        1.14930530
 C           -1.86211434        1.50998474        0.84264230
 C           -2.86328348        0.54110007        0.68910499
 C           -0.11681561        2.81321304       -0.18948229
 C           -1.38210699        2.21428607       -0.26567218
 C            0.48060997        3.31241201       -1.34432162
 C            2.44641052        2.04910295       -0.73910379
 C            2.96882715        0.79135766       -1.06335980
 C            1.78840694        2.80188908       -1.69920597
 C            2.16045117       -1.10210641       -2.34511411
 C            2.71989503        0.23391567       -2.30916773
 C            1.24866037       -1.17322555       -3.47369829
 C           -0.14504093       -2.67387934       -2.13702841
 C            0.10090379       -1.94141999       -3.36697415
 C           -2.10583624       -2.94260605       -0.71171248
 C           -3.17324644       -2.05763003       -0.26538922
 C           -1.58320011       -2.79796178       -1.98701867
 C           -3.44891556        0.35237293       -0.55450725
 C           -3.56973878       -1.00103246       -1.07347397
 C           -2.09209901        2.17564612       -1.47699397
 C           -3.08571317        1.21913948       -1.65394868
 C           -0.28994881        3.43061075       -2.56100089
 C           -1.58944473        2.80496042       -2.61290336
 C            1.71891918        2.33230678       -3.06910200
 C            2.08634090        1.02359889       -3.34955367
 C            1.18896229        0.14455809       -4.08938095
 C            0.51028227        2.88713412       -3.65044237
 C           -1.68667081        2.11902131       -3.89149641
 C           -0.01880077        0.62565065       -4.58765960
 C           -0.34806418        2.03340382       -4.44900869
 C           -1.17281924       -1.41710923       -3.84056591
 C           -2.20501350       -1.87197861       -2.92229101
 C           -3.16754166       -0.97612378       -2.46906123
 C           -3.09730201        0.41836735       -2.86991251
 C           -1.24078586       -0.13501311       -4.37918155
 C           -2.26963289        0.78942304       -3.92047576
