   70
C70 / DATE: 7/ 1/2024 / Origin: Program Fullerene / C70 from database
 C            1.56998891       -0.01412471        4.76311839
 C            0.78263120       -1.20951666        4.52278075
 C            1.43032192       -1.96736816        3.46422620
 C            2.70068122       -0.04671332        3.85533832
 C            2.72497405       -1.35108254        3.22031993
 C            2.63379031        1.12749688        3.00126335
 C            0.74887026        1.12625907        4.40215985
 C            1.39325099        1.81865604        3.30090063
 C           -0.59495347       -0.79820711        4.33195303
 C           -0.61021949        0.65316902        4.20811634
 C           -1.37926113       -1.53950504        3.46181136
 C            0.65967519       -2.41408982        2.38796131
 C           -0.72638122       -2.44225398        2.52294076
 C            1.23393837       -2.52071428        1.11589372
 C            3.26611479       -1.43184578        1.94940033
 C            2.58635395       -2.23499514        0.95226858
 C            3.01913342        0.99465462        1.67241190
 C            3.63225340       -0.19589988        1.28023509
 C            2.39703854        1.78512273        0.70339736
 C            0.59654137        2.25393842        2.25014123
 C            1.13052058        2.32464136        0.96070156
 C           -1.36990538        1.22957325        3.19303334
 C           -0.78650130        2.23324042        2.41050938
 C           -2.44356735       -0.86796811        2.73815044
 C           -2.46648361        0.52135217        2.69193960
 C           -1.55871130       -2.51862503        1.33875492
 C           -2.67826118       -1.61263901        1.51246836
 C            0.42556245       -2.63107513       -0.02118329
 C           -0.96690952       -2.59512825        0.09134199
 C            1.00716147       -2.56826477       -1.29125243
 C            3.06123175       -1.77806130       -0.34349449
 C            3.74106445       -0.50778992       -0.13204995
 C            2.23609662       -1.92275463       -1.45274483
 C            2.86009276        1.71671755       -0.60807522
 C            3.54165348        0.50916548       -1.04956382
 C            1.99989341        2.15558268       -1.69284401
 C            0.31384925        2.74667127       -0.09702394
 C            0.67521688        2.46480264       -1.41405921
 C           -1.56286010        2.89666560        1.47357538
 C           -0.98296432        3.17221902        0.16987162
 C           -3.27971536        1.12488454        1.74010202
 C           -2.92388190        2.44837595        1.27039703
 C           -3.17503687       -0.93731819        0.40008646
 C           -3.69750484        0.34558259        0.58250601
 C           -1.73256409       -2.26288115       -1.02106813
 C           -2.78773067       -1.35149125       -0.88005062
 C            0.20285054       -2.78887282       -2.40524156
 C           -1.22647258       -2.56849187       -2.27977107
 C            0.62362116       -2.26311004       -3.68913614
 C            2.44164815       -1.08756014       -2.55594833
 C            3.01150521        0.16822711       -2.35528652
 C            2.32030470        1.34414677       -2.85250745
 C            1.70099866       -1.29416730       -3.71491179
 C            1.36600718        1.17925329       -3.84274138
 C            1.23347584       -0.13250024       -4.45453859
 C           -0.31352350        2.25405829       -2.38433841
 C            0.02590103        1.69735253       -3.61931600
 C           -2.01008408        2.96173815       -0.83384633
 C           -3.21285813        2.51736493       -0.14983346
 C           -3.81077543        1.25623300       -0.54733536
 C           -1.66264226        2.35260498       -2.03461624
 C           -3.22776117       -0.62417281       -1.98450068
 C           -3.54086948        0.78095170       -1.81967635
 C           -2.59021065        1.50703858       -2.64500864
 C           -1.66981221       -1.81834514       -3.44139317
 C           -0.53558641       -1.66858504       -4.33556198
 C           -0.16678916       -0.33806539       -4.77944896
 C           -0.91287031        0.79977788       -4.27306488
 C           -2.53960898       -0.75339097       -3.25745626
 C           -2.15093601        0.59005639       -3.68118709
