   70
C70 / DATE: 7/ 1/2024 / Origin: Program Fullerene / C70 from database
 C            1.03555878        0.13476491        5.51467824
 C            0.35840120       -1.07919840        5.09723137
 C            1.35608000       -1.96244794        4.54089278
 C            2.38361558        0.09767618        4.96671946
 C            2.56619638       -1.18527249        4.32102459
 C            2.56757859        1.29527853        4.17902164
 C            0.34333134        1.25905488        4.90805755
 C            1.33469533        2.07071596        4.24854612
 C           -0.76491044       -0.70521199        4.25517234
 C           -0.75151734        0.74071478        4.11092368
 C           -1.06420928       -1.46965634        3.12768999
 C            1.04247707       -2.62070472        3.29329069
 C           -0.25518959       -2.56718961        2.79456665
 C            2.86533176       -1.23695082        2.89411181
 C            2.12786736       -2.36031938        2.36217464
 C            2.91724871        1.17660687        2.77161991
 C            2.93224969       -0.06863675        2.13957183
 C            1.05193974        2.53277952        2.90512499
 C            2.23444050        2.26580539        2.11458352
 C           -1.01121861        1.27641839        2.84829003
 C           -0.18811661        2.27685025        2.31113354
 C           -1.82779027       -0.86976353        2.12412666
 C           -1.78510334        0.52200075        1.97573197
 C           -2.29964397       -1.65626213        1.07519428
 C           -0.43062558       -3.15199440        1.54764509
 C           -1.59229159       -2.80538121        0.75258501
 C            1.82241913       -2.39525256        1.00676504
 C            0.71234572       -3.14934510        0.64922121
 C            2.65434804       -0.12539089        0.76764678
 C            2.18100684       -1.31332572        0.19239697
 C            2.04701678        2.19460196        0.75195195
 C            2.51106921        1.07477664        0.06424873
 C           -0.28753155        2.55870683        0.93970703
 C            0.90737757        2.80255027        0.26029794
 C           -2.18856886        1.09488985        0.77685845
 C           -1.39308396        2.09218994        0.21213569
 C           -3.07801410       -1.06269615        0.08863304
 C           -3.07601373        0.38463695       -0.01466788
 C           -3.01099126       -1.58324343       -1.26650383
 C           -1.23745638       -3.04969329       -0.63675280
 C            0.20843800       -3.06907073       -0.70124894
 C           -1.92111046       -2.36788910       -1.63515012
 C            1.77539124       -1.29929745       -1.14854561
 C            0.82331222       -2.22301384       -1.60444171
 C            2.29659617        1.04459069       -1.31660155
 C            2.08051831       -0.18730359       -1.93996124
 C            0.87736589        3.01554692       -1.09990067
 C            1.76939948        2.20002176       -1.89924407
 C           -1.46741283        2.35885235       -1.16553590
 C           -0.39808477        3.01007455       -1.77320365
 C           -3.22971899        0.73039404       -1.41352602
 C           -3.44017105       -0.51177143       -2.14634985
 C           -2.42704394        1.72431168       -1.96622251
 C           -3.06750643       -0.56378094       -3.48000785
 C           -1.24610160       -2.05947302       -2.81989045
 C            0.15782418       -1.97377516       -2.79933082
 C           -1.97740945       -1.45494045       -3.84313264
 C            1.76314630       -0.22377726       -3.30132283
 C            0.83974204       -1.24125827       -3.76073627
 C            1.21606434        2.15374797       -3.23718346
 C           -0.10883581        2.76848650       -3.17317636
 C            1.41093872        1.00761988       -3.99073996
 C           -2.34454914        1.81146369       -3.36073624
 C           -2.82341302        0.69314305       -4.15581443
 C           -1.12627425        2.29999041       -3.98653951
 C           -1.29389713       -0.87678289       -4.98441857
 C            0.14336267       -0.73267213       -4.92501684
 C            0.45851875        0.68197279       -5.03883325
 C           -1.86466694        0.43997643       -5.21718400
 C           -0.79474136        1.41153154       -5.08765138
