   70
C70 / DATE: 7/ 1/2024 / Origin: Program Fullerene / C70 from database
 C            1.54056167        0.12022915        5.06683453
 C            0.74532048       -1.08582046        4.91236142
 C            1.56563179       -2.05449084        4.22011014
 C            2.69114962       -0.00102954        4.18852865
 C            2.76007734       -1.37309197        3.74255884
 C            2.59590298        1.04052687        3.18638390
 C            0.74020549        1.23470096        4.59336765
 C            1.44369217        1.86675909        3.48948642
 C           -0.52856676       -0.70803141        4.32062698
 C           -0.60182506        0.74466301        4.35343873
 C           -1.00172796       -1.39469870        3.19606285
 C            0.99015659       -2.74779732        3.08893557
 C           -0.35283994       -2.56775290        2.77685524
 C            2.86927485       -1.63313346        2.31761704
 C            1.94889662       -2.70057334        1.99774446
 C            2.84029437        0.74709655        1.85265168
 C            2.97122497       -0.58222375        1.42032725
 C            2.45550772        1.69879858        0.91864106
 C            0.69577290        2.37139112        2.42398549
 C            1.27306321        2.41121869        1.14674838
 C           -1.34958281        1.38679928        3.38367497
 C           -0.69359946        2.37026043        2.53409640
 C           -1.93039058       -0.76312242        2.35168397
 C           -2.19461430        0.59190236        2.51361840
 C           -2.36503189       -1.39407970        1.18498856
 C           -0.78131503       -3.18835618        1.61449128
 C           -1.96968733       -2.70341688        0.95394696
 C            1.44886154       -2.80553403        0.69892495
 C            0.20919531       -3.41704251        0.57227301
 C            2.75628001       -0.86449734        0.07298436
 C            1.84514785       -1.87275927       -0.27635943
 C            2.89268660        1.50962141       -0.38067686
 C            3.04617226        0.14065646       -0.83428835
 C            2.28375688        2.26153469       -1.45449618
 C            0.50451313        2.83896769        0.05448453
 C            1.09997558        2.95293625       -1.20884151
 C           -1.49749306        2.48255589        1.33586896
 C           -2.45971132        1.39623988        1.33673021
 C           -0.89028135        2.79693631        0.13570642
 C           -2.87014890       -0.63092107        0.12139043
 C           -2.73105490        0.75752807        0.13103863
 C           -3.21773042       -1.25992304       -1.07165657
 C           -1.89415927       -3.18983609       -0.40730300
 C           -0.47897813       -3.37428241       -0.69508990
 C           -2.67657009       -2.57905755       -1.36833407
 C            1.15892245       -1.80953409       -1.50875653
 C            0.08723968       -2.67914628       -1.75654774
 C            2.52285324        0.06517948       -2.17919870
 C            2.39964185        1.43317389       -2.64531510
 C            1.51174647       -0.84327173       -2.46638148
 C            1.56731689        1.69509133       -3.71652389
 C            0.30332808        3.30654561       -2.29966285
 C            0.69374880        2.84869290       -3.62227503
 C           -1.61297028        2.55708686       -1.02175940
 C           -2.45002647        1.43124381       -1.06528665
 C           -1.13218347        3.12332006       -2.18838074
 C           -3.21120414       -0.49030108       -2.30612777
 C           -2.79847761        0.84046294       -2.28942254
 C           -2.15006896       -2.53215564       -2.71710048
 C           -0.70677685       -2.49538887       -2.88375063
 C           -2.69574191       -1.35314130       -3.35296126
 C            0.70117925       -0.61512436       -3.58584286
 C            0.78395004        0.60210286       -4.26933331
 C           -0.40525873       -1.42765132       -3.81384100
 C           -1.66986956       -0.82061588       -4.22357165
 C           -0.51364096        2.55765652       -4.37352413
 C           -1.63694258        2.65794285       -3.45876749
 C           -2.35004988        1.39969684       -3.48900647
 C           -0.43494804        1.17644143       -4.81046287
 C           -1.68978067        0.54184263       -4.46832190
