   70
C70 / DATE: 7/ 1/2024 / Origin: Program Fullerene / C70 from database
 C            1.37524492       -0.12094726        4.40307274
 C            2.56973940       -0.47095312        3.67351718
 C            2.48066635       -1.87526258        3.30262925
 C            0.53346315       -1.30559906        4.48066052
 C            1.21662053       -2.39171472        3.79735832
 C           -0.79855615       -0.92411235        4.03799414
 C            0.55254303        0.96643241        3.90788855
 C           -0.82714790        0.52594809        3.99073066
 C            0.95249977        1.70978520        2.79541300
 C            2.88987808        0.27583294        2.47634190
 C            2.14464653        1.39827833        2.11679015
 C            2.77991024       -1.98159613        1.88057390
 C            3.22340205       -0.67716351        1.43747858
 C            1.93826431       -2.72711405        1.05998957
 C            0.47666956       -3.22624239        2.97222288
 C            1.01024335       -3.57412656        1.66674205
 C           -1.40984644       -1.65994589        3.02329470
 C           -0.93518468       -2.94221543        2.76791773
 C           -2.21033079       -1.00210710        2.07744352
 C           -1.76107728        1.14348375        3.17947442
 C           -2.58032537        0.31717022        2.31061550
 C            0.00401128        2.53643509        2.18245806
 C           -1.35044118        2.29843098        2.39962425
 C            0.37542950        3.31444762        1.09346476
 C            2.34571241        1.90705779        0.83318899
 C            1.64403575        3.04358053        0.45220792
 C            2.99014056       -0.29606854        0.12911477
 C            2.88719544        1.06273227       -0.14218182
 C            1.78109413       -2.35606456       -0.28666140
 C            2.42875349       -1.20478238       -0.76893592
 C            0.85584002       -3.03454240       -1.09545910
 C           -0.10605196       -4.07520985        0.89829813
 C           -1.32596151       -3.61519553        1.54869413
 C           -0.19734764       -3.71178298       -0.49377507
 C           -2.43139709       -1.55725320        0.80925741
 C           -2.09331193       -2.88168563        0.56385431
 C           -1.54504020       -3.22474837       -0.73081907
 C           -2.72782313       -0.72927447       -0.28101748
 C           -2.99554404        1.14673897        1.19708124
 C           -2.27881657        2.41074068        1.28875729
 C           -3.17535264        0.58099793       -0.05640892
 C           -0.60006697        3.60227220        0.04837914
 C           -1.87466828        3.03943118        0.11296524
 C            1.51767380        3.38250446       -0.95374149
 C            0.11042092        3.64717750       -1.22225413
 C            2.93875246        1.46286520       -1.46921583
 C            2.27115965        2.68489919       -1.88292556
 C            2.29048219       -0.81673353       -2.10634368
 C            2.71321923        0.45723034       -2.49160798
 C            0.62438307       -2.58647808       -2.38864691
 C            1.44032860       -1.52930800       -2.94354951
 C           -1.73332640       -2.34735003       -1.78845696
 C           -2.50819786       -1.20350797       -1.58817271
 C           -0.75264534       -2.32666009       -2.77780681
 C           -2.75276950       -0.38098503       -2.68497604
 C           -3.28874510        1.46533319       -1.12082997
 C           -2.53570594        2.70903094       -1.06875367
 C           -3.23493489        0.96348399       -2.47311474
 C           -0.49499797        3.13695711       -2.36963524
 C           -1.85857981        2.86372431       -2.34628536
 C           -2.40367997        1.86720419       -3.25256926
 C            1.71950918        2.46352097       -3.20496194
 C            2.07490126        1.11552035       -3.61859161
 C            0.29141868        2.62878754       -3.40519565
 C            0.62963741       -0.82623275       -3.93131527
 C           -0.74785072       -1.26610991       -3.77031667
 C           -1.77789550       -0.33451022       -3.76264387
 C           -1.49154690        1.06421381       -4.04539265
 C            0.90154023        0.50550162       -4.21421006
 C           -0.17426289        1.48583277       -4.17872253
