   70
C70 / DATE: 7/ 1/2024 / Origin: Program Fullerene / C70 from database
 C            1.22580344       -0.09143698        4.30144799
 C            2.42371904       -0.35525053        3.54281358
 C            2.30959429       -1.69696264        2.99255822
 C            0.37471501       -1.26908552        4.20359036
 C            0.94702984       -2.13653158        3.19608231
 C           -0.98455666       -0.80311596        4.01958471
 C            0.41281793        1.05278479        3.94207102
 C           -0.96192258        0.64664397        4.15153854
 C            0.72517959        1.81507269        2.81424243
 C            2.75927260        0.52767250        2.44526416
 C            1.91006953        1.57464952        2.09292571
 C            2.81812375       -1.65181438        1.63821883
 C            3.29395214       -0.30536939        1.38807380
 C            2.11139223       -2.28036171        0.62302151
 C            0.18052186       -2.46900214        2.08438224
 C            0.81317279       -2.75064717        0.86611578
 C           -1.77380847       -1.37615262        3.02535841
 C           -1.20481267       -2.28604104        2.12374217
 C           -2.96821585       -0.73881682        2.69433036
 C           -1.96883110        1.38420542        3.54897047
 C           -3.11012130        0.67404837        2.99736303
 C           -0.26356267        2.65285169        2.28182788
 C           -1.60430254        2.42907331        2.60462251
 C            0.00748099        3.39353871        1.13585754
 C            2.08733374        2.15647891        0.83732389
 C            1.28041512        3.22472774        0.46964641
 C            3.23451136        0.16778617        0.08429066
 C            2.84920566        1.49219523       -0.13175206
 C            2.48573198       -1.99010743       -0.68363351
 C            3.08998740       -0.75747135       -0.95189262
 C            1.91391901       -2.72927452       -1.71050219
 C            0.06946186       -3.28599163       -0.19125460
 C            0.66424674       -3.41884541       -1.44644062
 C           -1.97853742       -2.78462490        1.08174040
 C           -1.32212315       -3.31450208       -0.10277076
 C           -3.56553216       -0.95637314        1.38954453
 C           -3.13792866       -2.03066548        0.63274991
 C           -3.51545002        1.34713441        1.77357993
 C           -2.58894186        2.43066789        1.53265605
 C           -3.67474779        0.34136102        0.74546935
 C           -1.01389542        3.46679493        0.10322992
 C           -2.14767774        2.67292945        0.23771980
 C            1.08426222        3.53453765       -0.93735618
 C           -0.34950332        3.57676833       -1.18184030
 C            2.93112587        2.01254152       -1.42177620
 C            1.92632344        2.95696579       -1.87539583
 C            3.21847985       -0.31836218       -2.26566882
 C            3.20912403        1.10997504       -2.52489079
 C            1.85986382       -2.18612621       -3.05951386
 C            2.43395429       -0.95049561       -3.30940883
 C           -0.16327179       -3.29405061       -2.63378534
 C            0.53326447       -2.44402713       -3.58236470
 C           -2.12466213       -2.91535016       -1.25236505
 C           -2.99156096       -1.85074787       -0.79819055
 C           -1.51157519       -2.78502136       -2.48557460
 C           -3.06238178        0.53871462       -0.48996073
 C           -2.48373305        1.77797839       -0.78841929
 C           -2.81811042       -0.56696643       -1.31297731
 C           -0.88531537        2.91248336       -2.27575148
 C           -2.00002663        2.00098998       -2.07330067
 C            1.37589596        2.44936472       -3.12325683
 C            2.22741238        1.36464483       -3.56919928
 C            1.62573234        0.09185593       -3.92681629
 C            0.00013498        2.33057563       -3.27125394
 C           -0.32476184       -1.31276418       -3.88815628
 C           -1.57540428       -1.49954048       -3.16691299
 C           -2.17128823       -0.40315493       -2.54171684
 C           -1.82404863        0.87298246       -2.96982124
 C            0.23537857       -0.03952563       -3.95996432
 C           -0.57799845        1.06358222       -3.69806953
