   70
C70 / DATE: 7/ 1/2024 / Origin: Program Fullerene / C70 from database
 C            1.26394364       -0.07483681        4.17482183
 C            2.47076617       -0.31066518        3.40482251
 C            2.43949509       -1.70442771        2.98343556
 C            0.42482170       -1.25710712        4.04216889
 C            1.06557968       -2.15308630        3.10876025
 C           -0.91304583       -0.81648773        3.74568855
 C            0.45096690        1.08966147        3.87625270
 C           -0.91243454        0.63545777        3.67669155
 C            0.96018037        2.07211106        3.04520440
 C            2.93021113        0.66628721        2.52073460
 C            2.26601427        1.88855047        2.42505012
 C            3.82202337        0.30214264        1.51734144
 C            3.16204586       -2.08221357        1.86527556
 C            4.04586604       -1.10837646        1.25163196
 C            2.47896605       -2.79070498        0.79587450
 C            0.37451142       -2.56016315        1.96744621
 C            1.10863041       -3.04418301        0.87847637
 C           -1.66413150       -1.50073328        2.80241547
 C           -1.00409213       -2.29041747        1.83818700
 C           -2.86724245       -0.89614726        2.47131149
 C           -1.72845868        1.24213207        2.72096538
 C           -2.88533467        0.55550411        2.37518930
 C            0.08392548        2.69029887        2.06498399
 C           -1.16272374        2.12914820        1.79625772
 C            2.25412878        2.60494226        1.15900802
 C            0.91247427        3.14095126        0.96564600
 C            3.78604875        0.99155523        0.23666206
 C            2.95931983        2.10117650        0.06600006
 C            4.00542962       -1.30710781       -0.18734483
 C            3.02805236       -2.33097583       -0.47126699
 C            3.84021460       -0.01679539       -0.81298089
 C            2.16094408       -2.16568928       -1.54517010
 C            0.45199521       -3.39049616       -0.29317372
 C            1.02054783       -2.96366933       -1.56160612
 C           -1.69531962       -2.72992817        0.69307233
 C           -0.98421477       -3.24963516       -0.37975237
 C           -3.65117379       -1.42928761        1.38828730
 C           -2.99054341       -2.28581784        0.43519562
 C           -3.59304440        0.90631402        1.16434143
 C           -4.21919650       -0.30662248        0.66396484
 C           -1.71874195        2.27154122        0.51441175
 C           -3.00424771        1.77169408        0.25207211
 C            0.37752655        3.17551203       -0.31138313
 C           -0.98041952        2.91257770       -0.49772632
 C            2.52192847        2.41254898       -1.22006209
 C            1.24848589        3.08830524       -1.39334509
 C            2.98296921        0.10814269       -1.89866654
 C            2.18547475       -0.97850560       -2.29462630
 C            2.61448612        1.39946738       -2.25906405
 C            1.26903041       -0.81293186       -3.33492465
 C           -0.07190930       -2.66462947       -2.46821345
 C           -1.31266449       -2.80064988       -1.72580799
 C            0.06719067       -1.63016862       -3.37398479
 C           -3.31497743       -1.79895753       -0.89929733
 C           -4.12267917       -0.59705322       -0.75445089
 C           -2.34236122       -1.87704879       -1.89666543
 C           -3.48651075        1.73783258       -1.05367955
 C           -3.90144448        0.46196544       -1.61736771
 C           -1.49905010        3.02702037       -1.78560684
 C           -2.79068122        2.46030657       -2.09140936
 C            0.73798170        2.73567382       -2.70807019
 C            1.53176030        1.61894685       -3.20059658
 C            0.90540209        0.52374796       -3.77597049
 C           -0.63279043        2.75430151       -2.91786677
 C           -1.06259419       -0.75406176       -3.62463674
 C           -2.20516848       -0.83703075       -2.82631587
 C           -3.08454078        0.24391718       -2.79311405
 C           -2.61929649        1.55322924       -3.21772252
 C           -0.53177159        0.54885985       -3.99978817
 C           -1.25653374        1.69478871       -3.69599099
