   70
C70 / DATE: 7/ 1/2024 / Origin: Program Fullerene / C70 from database
 C            1.43795490       -0.10132244        4.31859524
 C            2.61865077       -0.30177369        3.49324441
 C            2.37235283       -1.47745270        2.67613770
 C            0.59232001       -1.27125318        4.17154156
 C            1.27850601       -2.20490696        3.29895273
 C           -0.73735223       -0.82457607        3.79178672
 C            0.61581692        1.07603085        4.09331220
 C           -0.68800196        0.61778166        3.64219742
 C            1.19428799        2.17786015        3.48102389
 C            3.20715618        0.80570612        2.90559993
 C            2.60090806        2.10986101        3.12519675
 C            3.57181567        0.73926058        1.50146793
 C            2.42931723       -1.37808861        1.28260980
 C            3.03086441       -0.26521512        0.69208760
 C            1.69219381       -2.26859805        0.49938861
 C            0.50452950       -3.03055732        2.50440501
 C            0.90533836       -3.23459527        1.12805385
 C           -1.44221312       -1.56834330        2.84968351
 C           -0.93273640       -2.81242337        2.47087159
 C           -2.34640973       -0.91619248        2.00545705
 C           -1.27526633        1.18451367        2.51798576
 C           -2.28099483        0.47664266        1.86323617
 C            0.49708288        2.82298884        2.37981041
 C           -0.65661853        2.25469213        1.86299540
 C            2.79247842        2.89341890        1.91957722
 C            3.60949494        2.10804129        1.01364453
 C            1.48852094        3.33959767        1.45345015
 C            3.43583965        2.31812560       -0.34044516
 C            2.88257963       -0.03620745       -0.67896093
 C            3.36375966        1.16006346       -1.20620489
 C            1.52047457       -2.02026545       -0.86527314
 C            2.00414904       -0.83492467       -1.42488232
 C            0.67318581       -2.83762221       -1.61119438
 C           -0.25669866       -3.77009288        0.44307437
 C           -1.42156769       -3.45281015        1.26066506
 C           -0.32864309       -3.64293304       -0.93390562
 C           -3.09287520       -1.67792017        1.10696779
 C           -2.56932898       -2.95690664        0.65912567
 C           -3.74685214       -1.04465416       -0.02494003
 C           -2.95895250        1.11164145        0.82695817
 C           -3.70239832        0.33579809       -0.14801866
 C           -1.02372834        2.56479270        0.55724541
 C           -2.28893000        2.19299524        0.12778654
 C            1.23433180        3.30067666        0.08155881
 C            2.33737786        3.17114435       -0.75951397
 C           -0.03681527        2.90820741       -0.37526555
 C            2.83357064        1.65104724       -2.45675294
 C            2.13501025        2.89788014       -2.16141931
 C            1.55953186       -0.43031694       -2.69767949
 C            1.91289373        0.82011215       -3.19547217
 C            0.07084867       -2.31797941       -2.82236063
 C            0.46483292       -1.06894601       -3.28544305
 C           -1.61035496       -3.37824552       -1.56660442
 C           -2.70220098       -3.00849117       -0.78743292
 C           -3.53536971       -1.88674341       -1.19354368
 C           -1.34297519       -2.67698800       -2.80989778
 C           -3.34975825       -1.30463585       -2.44297007
 C           -2.28133592       -1.78207286       -3.30839456
 C           -3.49179688        0.94291651       -1.45214062
 C           -2.54515439        2.03970044       -1.28833935
 C           -3.42787888        0.14171635       -2.58469586
 C           -0.27966667        2.73561906       -1.75117416
 C            0.78487373        2.74717799       -2.65148649
 C            0.85499730        1.70029222       -3.64883820
 C           -1.49757564        2.20166246       -2.18869513
 C           -0.40626842       -0.32751876       -4.08617606
 C           -1.81962627       -0.65880472       -4.09933523
 C           -2.54310324        0.52799472       -3.66561734
 C           -0.32911680        1.12146162       -4.05813445
 C           -1.55928147        1.57295664       -3.43448641
