   70
C70 / DATE: 7/ 1/2024 / Origin: Program Fullerene / C70 from database
 C            1.52750737       -0.01155430        4.63629718
 C            0.70032123       -1.18127032        4.44016472
 C            1.30777269       -1.99247989        3.39831125
 C            2.60198124       -0.07198942        3.66140013
 C            2.36591591       -1.20246273        2.79317172
 C            2.68136806        1.22565888        3.04844179
 C            0.71362643        1.14926061        4.31380949
 C            1.48570867        1.96898749        3.41788550
 C           -0.66028052       -0.72357248        4.23080232
 C           -0.57003291        0.67723126        3.84877344
 C           -1.48918501       -1.54821752        3.49450486
 C            0.45866760       -2.70009416        2.56287934
 C           -0.89708733       -2.72490723        2.88588185
 C            0.81996328       -2.85553433        1.22569595
 C            2.35323193       -0.99800241        1.41200925
 C            1.59975475       -1.86511352        0.61316148
 C            3.06862881        1.31488014        1.72146915
 C            2.83413450        0.20994747        0.87578628
 C            2.92739379        2.58395086        1.18633377
 C            0.83668695        2.65009530        2.39489829
 C            1.68881521        3.27703423        1.49748897
 C           -1.01628552        1.07451444        2.58465029
 C           -0.38253398        2.13788644        1.91139119
 C           -2.31027455       -0.95496124        2.45817777
 C           -1.92174420        0.25656609        1.89966362
 C           -1.83713868       -3.17809245        1.88450523
 C           -2.70119627       -2.04033721        1.57916218
 C            0.04580337       -3.70353807        0.44107094
 C           -1.34216053       -3.92438432        0.82838898
 C            0.08399554       -3.56822238       -1.00163471
 C            1.46415821       -1.60626454       -0.75559540
 C            0.67365371       -2.43808823       -1.56097691
 C            2.80192996        0.39672376       -0.51632148
 C            2.15389577       -0.53769510       -1.32925463
 C            3.21584272        2.78499479       -0.20789700
 C            3.18137159        1.62658393       -1.06383437
 C            1.16316859        3.79827446        0.26156734
 C            2.23620780        3.72795862       -0.71579731
 C           -0.82569645        2.49117676        0.62439011
 C           -0.11577006        3.43830980       -0.13348340
 C           -2.19312810        0.50633577        0.55890168
 C           -1.85171630        1.74480463        0.03072265
 C           -3.00353527       -1.76839750        0.24810085
 C           -2.80763768       -0.46949386       -0.24855572
 C           -2.12892575       -3.95995347       -0.38409817
 C           -1.20346907       -4.01695340       -1.49844668
 C           -3.02617378       -2.84850715       -0.63459381
 C           -1.81436109       -3.28603229       -2.58675767
 C           -2.99209186       -2.60860278       -2.05846072
 C            0.26609365       -2.00607916       -2.83051497
 C           -1.02462092       -2.28218467       -3.26680857
 C            1.96493040       -0.25686355       -2.68052764
 C            0.88248175       -0.90099653       -3.39239940
 C            2.60059704        2.06647850       -2.32121541
 C            1.90634253        3.32402700       -2.06922634
 C            2.01997946        1.11711760       -3.14454716
 C           -0.44355236        3.64411578       -1.47112108
 C            0.58874394        3.46665600       -2.48398072
 C           -2.37388465        2.11434728       -1.19878173
 C           -1.67290940        3.09669398       -1.99395288
 C           -3.04841655       -0.20342184       -1.60631591
 C           -2.95041277       -1.24125025       -2.52469396
 C           -1.90842540       -1.16365812       -3.53297559
 C           -2.81726145        1.07369156       -2.10088909
 C            0.04375305        0.14678304       -3.96260387
 C            0.75644817        1.40790420       -3.80950466
 C            0.05728268        2.56568105       -3.48994506
 C           -1.37589739        2.49322171       -3.28496283
 C           -1.34280116        0.08133761       -3.78978472
 C           -2.02955143        1.19994538       -3.31940000
