   70
C70 / DATE: 7/ 1/2024 / Origin: Program Fullerene / C70 from database
 C            1.48765385        0.14142666        4.93098620
 C            0.69311129       -1.07041304        4.96789286
 C            1.47711781       -2.12374218        4.35179786
 C            2.63062588       -0.10566102        4.06437394
 C            2.63737704       -1.50791831        3.72383030
 C            2.57779834        0.85929616        2.98711783
 C            0.68187343        1.17709328        4.30832747
 C            1.47177602        1.75854415        3.24995374
 C           -0.61829772       -0.76367056        4.41882625
 C           -0.60036559        0.61184000        3.94554542
 C           -1.26659396       -1.71950491        3.65285110
 C            0.83961096       -2.96842944        3.35986836
 C           -0.53777793       -2.89990351        3.19694161
 C            2.62859028       -1.88060950        2.32068156
 C            1.67879156       -2.96658203        2.17229561
 C            2.77430870        0.45589451        1.66446148
 C            2.68494728       -0.90221347        1.32404249
 C            2.47961453        1.39520053        0.67895221
 C            0.81596720        2.25579963        2.13854609
 C            1.58201084        2.41773286        0.99952678
 C           -1.11842839        0.91802623        2.68432071
 C           -0.53205949        1.95049811        1.94390268
 C           -2.10578179       -1.27924246        2.55329494
 C           -1.95324471        0.00391086        2.03520979
 C           -1.09486538       -3.27757280        1.91313186
 C           -2.21358761       -2.39329540        1.63558337
 C            1.08767466       -3.15158878        0.92866143
 C           -0.23873712       -3.59507602        0.86461945
 C            2.28348436       -1.25706714        0.02930140
 C            1.63631707       -2.48117395       -0.16694180
 C            2.60658288        1.02344164       -0.65577672
 C            2.30297200       -0.29761661       -0.99296054
 C            2.47145100        2.02705922       -1.61190815
 C            1.02608978        3.15065747       -0.03506512
 C            1.77041581        3.22604702       -1.20386859
 C           -1.09093367        2.31022238        0.71698701
 C           -0.37123058        3.18135837       -0.10201263
 C           -2.33471915        0.24286830        0.71363289
 C           -2.05548748        1.48452941        0.13380520
 C           -2.52236504       -2.13695722        0.30750773
 C           -2.78050915       -0.82130192       -0.08170326
 C           -0.82298790       -3.75803025       -0.38567623
 C           -2.06517989       -3.04665044       -0.64615494
 C            1.22795507       -2.84651796       -1.44049025
 C            0.01033183       -3.61969570       -1.56312731
 C            1.71829308       -0.58222350       -2.23646443
 C            1.23150322       -1.85419262       -2.49706234
 C            1.95736699        1.68640519       -2.92125100
 C            1.32023158        0.46190973       -3.07040913
 C            1.19069355        3.83152243       -2.38277172
 C            1.37265985        2.89235538       -3.47935450
 C           -1.00593492        3.69971910       -1.22449093
 C           -0.20819650        4.19148786       -2.33564775
 C           -2.54175635        1.78768988       -1.14427670
 C           -2.13744595        2.97001599       -1.76806627
 C           -3.14408317       -0.58337520       -1.40058681
 C           -3.05224034        0.76189505       -1.93899898
 C           -2.09231616       -2.69269905       -2.05516178
 C           -0.79563921       -3.02676577       -2.61527891
 C           -0.01215937       -1.97306995       -3.23552276
 C           -2.68249453       -1.49765698       -2.43387265
 C            0.10778316        0.35802459       -3.77456358
 C           -2.60864181        0.63874151       -3.32299342
 C           -0.65056344       -0.80533700       -3.63900519
 C           -2.02826837       -0.68487015       -3.44345820
 C            0.11631373        2.79184791       -4.18533292
 C           -0.81389990        3.72463925       -3.56769210
 C           -2.00817424        2.97865800       -3.21598354
 C           -0.53955165        1.50132445       -4.24783377
 C           -1.93477621        1.70294170       -3.89501270
