   70
C70 / DATE: 7/ 1/2024 / Origin: Program Fullerene / C70 from database
 C            1.29738484       -0.08405093        4.26979436
 C            2.53540710       -0.39318919        3.59697321
 C            2.48250648       -1.78684037        3.18223792
 C            0.44593937       -1.26357480        4.21780926
 C            1.16583402       -2.30452403        3.50910783
 C           -0.85976579       -0.84726341        3.72855710
 C            0.51644276        1.03480732        3.79023497
 C           -0.86772307        0.60171609        3.70866865
 C            1.01172479        1.86770297        2.78778329
 C            2.91299337        0.39622906        2.43941302
 C            2.12304505        1.47263191        2.02507722
 C            2.94679303       -1.85420238        1.80622280
 C            3.40531309       -0.52880369        1.43730738
 C            2.22918881       -2.59521761        0.87168526
 C            0.48992304       -3.05648188        2.55974307
 C            1.14315682       -3.36301110        1.29801449
 C           -1.45187394       -1.53591813        2.67414131
 C           -0.90024960       -2.74620238        2.25467905
 C           -2.34304106       -0.85945178        1.83687054
 C           -1.70636547        1.25436888        2.81637756
 C           -2.60218069        0.50118506        2.05884476
 C            0.11987977        2.79058390        2.25866836
 C           -1.30366640        2.50040550        2.33974518
 C            0.37734900        3.38483122        0.96427208
 C            2.27514246        1.93385940        0.70852521
 C            1.49460944        3.00035283        0.24014582
 C            3.32418492       -0.15027523        0.10946913
 C            3.05838398        1.18354299       -0.18128076
 C            2.36219996       -2.27871183       -0.48322952
 C            3.05161482       -1.11985618       -0.85474817
 C            1.57330203       -2.94262411       -1.42223300
 C            0.09224089       -3.71068071        0.35781037
 C           -1.16329320       -3.22347528        0.90679909
 C            0.33288384       -3.56500801       -0.99670063
 C           -2.78893437       -1.47975654        0.66415483
 C           -2.03332536       -2.50624436        0.09447150
 C           -3.82769684       -0.91585143       -0.06594862
 C           -3.48875165        1.18103543        1.22924076
 C           -4.21471459        0.45070361        0.20974742
 C           -1.94565358        3.06768632        1.16456298
 C           -0.89262338        3.50886737        0.26390090
 C           -3.06180139        2.43720237        0.63827016
 C           -0.94648568        3.18192186       -1.09137827
 C            1.49478185        3.31363201       -1.11507375
 C            0.22706331        3.29171395       -1.83031258
 C            3.27397971        1.62621057       -1.48046387
 C            2.49944179        2.73772419       -1.98049461
 C            3.11574091       -0.75950845       -2.19957944
 C            3.34257549        0.63651841       -2.54023901
 C            1.33173404       -2.33805027       -2.72181394
 C            2.10876431       -1.26336390       -3.11647213
 C           -0.72626735       -3.05917901       -1.85319494
 C           -1.91733901       -2.60271461       -1.29819808
 C           -0.10939667       -2.27252122       -2.90900964
 C           -3.81992995       -1.07324150       -1.50431115
 C           -2.72323405       -1.80621103       -2.10441190
 C           -4.09634027        1.20071800       -1.03277629
 C           -3.14630269        2.26944949       -0.79912213
 C           -1.97611390        2.35443699       -1.55578387
 C           -3.83089697        0.25674942       -2.09183674
 C           -0.71213734       -1.07367258       -3.29350077
 C           -2.07920210       -0.92964335       -3.07274540
 C           -1.71564242        1.42481495       -2.57895223
 C           -2.61089620        0.39915011       -2.85960540
 C            0.40687097        2.43111771       -2.97893801
 C            1.83275786        2.30109182       -3.19758225
 C            2.36355638        1.00631026       -3.55167477
 C            1.44699451       -0.10712190       -3.68909275
 C           -0.43079020        1.32954199       -3.10798439
 C            0.08093040        0.06762925       -3.46063785
