   70
C70 / DATE: 7/ 1/2024 / Origin: Program Fullerene / C70 from database
 C            1.42025197       -0.01708657        5.00163114
 C            0.64210027       -1.23977061        4.93575617
 C            1.53482070       -2.28863465        4.49057029
 C            2.64066934       -0.23793758        4.24210792
 C            2.73118415       -1.65092667        3.95578709
 C            2.63623078        0.68976826        3.13014793
 C            0.66481682        1.02384138        4.32573522
 C            1.50978098        1.58748766        3.30117052
 C           -0.55983475       -0.95903192        4.16427244
 C           -0.60193044        0.47061551        3.90502355
 C           -0.96989596       -1.82840951        3.15252836
 C            1.05493590       -3.21698631        3.48980592
 C           -0.24354235       -2.99203720        2.87749350
 C            2.86976898       -2.07219128        2.57310483
 C            2.02719932       -3.23605156        2.41005211
 C            2.91472577        0.24319723        1.83827067
 C            2.88969683       -1.12615549        1.54672171
 C            2.64894840        1.12871062        0.79802135
 C            0.91100627        2.05982006        2.14365074
 C            1.71105941        2.14242138        1.01665314
 C           -1.13319002        0.89717510        2.69289845
 C           -0.45911888        1.86558292        1.94318748
 C           -1.82195420       -1.34073941        2.16235493
 C           -1.99621255        0.04175058        2.02680748
 C           -2.07499210       -2.15280664        1.06038527
 C           -0.12203559       -3.42538980        1.49396996
 C            1.28922834       -3.37170631        1.16991278
 C           -1.02514222       -2.91614862        0.56676326
 C            2.54123665       -1.53032166        0.25215484
 C            1.65739128       -2.60483445        0.07737593
 C            2.89300738        0.71609686       -0.50945389
 C            2.73310969       -0.63913551       -0.80850281
 C            2.78488272        1.67545863       -1.51419701
 C            1.21337856        2.83363785       -0.07549227
 C            2.00696177        2.85941245       -1.21556009
 C           -0.98926429        2.23870069        0.70194504
 C           -0.17640971        2.94692975       -0.18686096
 C           -2.68483944        0.52253300        0.91831607
 C           -2.15612657        1.62135415        0.22365753
 C           -3.05771071       -1.75354867        0.17349969
 C           -3.50657095       -0.38018016        0.25766632
 C           -2.83980250       -2.01191289       -1.23375401
 C           -0.59494474       -2.67980896       -0.74689987
 C            0.77786481       -2.57435185       -0.99771373
 C           -1.52621949       -2.18806213       -1.67347454
 C            2.29553668       -1.02361324       -2.07680993
 C            1.22449799       -1.99572155       -2.17062997
 C            2.45651186        1.27918688       -2.87246728
 C            2.08564061       -0.03052170       -3.11451199
 C            1.47292074        3.37213959       -2.45729902
 C            1.68256499        2.35103100       -3.47281842
 C           -0.74830207        3.48664798       -1.33242638
 C            0.07998181        3.75946842       -2.49394744
 C           -2.68172533        1.99681776       -1.02723259
 C           -2.00177300        2.93465780       -1.80871781
 C           -4.06062967       -0.03487808       -1.02977272
 C           -3.74048705       -1.12596986       -1.94148490
 C           -3.63339839        1.19344001       -1.65678091
 C           -3.30180577       -0.54215980       -3.18495205
 C           -3.46914561        0.89546696       -3.06707712
 C           -1.09124250       -1.59378987       -2.87049301
 C            0.26679861       -1.52188132       -3.14646975
 C            0.80629127       -0.31382933       -3.75443412
 C           -1.94216936       -0.78055203       -3.61915366
 C            0.39023789        2.04716329       -4.06156019
 C           -0.52533840        3.08775218       -3.62823149
 C           -1.86606972        2.70241908       -3.24470923
 C           -2.37197843        1.52574142       -3.77015209
 C           -0.05893716        0.72594945       -4.10453099
 C           -1.43249964        0.47470730       -4.15082733
