   70
C70 / DATE: 7/ 1/2024 / Origin: Program Fullerene / C70 from database
 C            1.28153800       -0.05839050        4.18958909
 C            2.46668499       -0.28406490        3.38230552
 C            2.41800311       -1.66790991        2.93099196
 C            0.43473682       -1.23578477        4.06213143
 C            1.04843177       -2.11531915        3.09342331
 C           -0.91614086       -0.78692454        3.81214788
 C            0.46437992        1.11216639        3.93282224
 C           -0.90813023        0.66668817        3.77585614
 C            0.95074272        2.10407629        3.09845752
 C            2.91049867        0.70924350        2.50811599
 C            2.23862318        1.92915922        2.43949597
 C            3.78574324        0.36184076        1.48393120
 C            3.10009797       -2.01980545        1.77906105
 C            3.99541151       -1.04453091        1.18695164
 C            2.36553684       -2.65527147        0.69612199
 C            0.31383984       -2.48659526        1.97109697
 C            0.98210301       -2.80652340        0.78254373
 C           -1.69757550       -1.45543504        2.87503981
 C           -1.08029119       -2.33627006        1.97275084
 C           -2.88801803       -0.82918422        2.51253105
 C           -1.75701655        1.29923957        2.87013850
 C           -2.93212934        0.62326541        2.55916405
 C            0.04789660        2.73722392        2.15302610
 C           -1.22112515        2.20717480        1.94290403
 C            2.18947652        2.65489486        1.17951957
 C            0.83449722        3.16403568        1.01159555
 C            3.73630209        1.07907693        0.21831509
 C            2.88395604        2.17315657        0.07086003
 C            3.94896055       -1.21259813       -0.25418298
 C            2.93398340       -2.19797497       -0.55920850
 C            3.82811237        0.09815946       -0.85534938
 C            2.07190443       -1.95723995       -1.62023875
 C            0.25471836       -2.96626361       -0.39650182
 C            0.82486313       -2.58127545       -1.61379572
 C           -1.81123298       -2.85568026        0.90665231
 C           -1.11212343       -3.20799733       -0.31592491
 C           -3.62028105       -1.26326454        1.33706160
 C           -3.07505420       -2.24512619        0.52759287
 C           -3.74805636        1.08288786        1.45915849
 C           -4.20339302       -0.08537641        0.71976146
 C           -1.84076651        2.40925085        0.70262869
 C           -3.15791492        1.99873563        0.51020016
 C            0.26249614        3.15818451       -0.25358327
 C           -1.08984632        2.83606062       -0.39985481
 C            2.42631265        2.50017962       -1.20435697
 C            1.11144524        3.10082739       -1.35579308
 C            3.01257373        0.25115060       -1.96921260
 C            2.28424414       -0.84533773       -2.44576802
 C            2.58830917        1.53757285       -2.28137703
 C            1.48951688       -0.68490391       -3.57867599
 C            0.04640001       -2.54889750       -2.76546452
 C            0.41137810       -1.62608946       -3.82283479
 C           -1.97483320       -2.86828361       -1.43650068
 C           -3.05624014       -2.05294507       -0.91481155
 C           -1.39979339       -2.52261743       -2.64697001
 C           -3.96019809        0.16847427       -0.69019582
 C           -3.58001570        1.56458371       -0.80862740
 C           -3.29261444       -0.78686876       -1.45456055
 C           -1.64374195        2.76260274       -1.67853309
 C           -2.83052606        1.95641230       -1.90191504
 C            0.59420568        2.71768840       -2.65958377
 C            1.50518304        1.73636773       -3.22999175
 C            1.00282317        0.64123245       -3.91998055
 C           -0.77456379        2.57176259       -2.82578093
 C           -0.77810078       -0.86651286       -4.17588485
 C           -1.86234766       -1.32351012       -3.32215249
 C           -2.62184689       -0.39200023       -2.61605298
 C           -2.48787281        0.96681352       -2.90850872
 C           -0.42583725        0.54111037       -4.17738351
 C           -1.29830245        1.45147354       -3.59438697
