   70
C70 / DATE: 7/ 1/2024 / Origin: Program Fullerene / C70 from database
 C            1.57634979       -0.06084569        4.67077714
 C            0.75875169       -1.23758349        4.45409885
 C            1.32920336       -1.99261865        3.35075117
 C            2.63134849       -0.06995770        3.67444870
 C            2.45605516       -1.23697446        2.83466731
 C            2.63634833        1.22619044        3.03060934
 C            0.74243645        1.10150881        4.41505172
 C            1.43072659        1.93011056        3.44961525
 C           -0.61815620       -0.79914287        4.33817399
 C           -0.58658221        0.63317785        4.08373071
 C           -1.47274391       -1.57898577        3.57909065
 C            0.45979468       -2.59499516        2.44849285
 C           -0.89925801       -2.64090707        2.76738765
 C            0.84970361       -2.72783237        1.11418877
 C            2.58159266       -1.07505711        1.46082002
 C            1.86846539       -1.91639389        0.60231026
 C            2.99332806        1.29923058        1.68801437
 C            3.13226861        0.10876866        0.96315938
 C            2.63206348        2.45853019        1.00833229
 C            0.69031834        2.58988172        2.47349904
 C            1.40861188        3.12795975        1.40901058
 C           -1.20530241        1.13635512        2.93982708
 C           -0.65672415        2.24647941        2.28447555
 C           -2.45013872       -0.91890957        2.73744680
 C           -2.22250471        0.39380442        2.32802544
 C           -1.87180412       -2.95153888        1.73187330
 C           -2.88180691       -1.90168189        1.76093778
 C            0.00854141       -3.40370654        0.24002648
 C           -1.41797907       -3.43525847        0.51339906
 C            0.18114587       -3.24262162       -1.18823323
 C            2.09839808       -1.84379764       -0.77794289
 C            1.25303604       -2.50637906       -1.67691380
 C            3.44693555        0.17093784       -0.38852141
 C            3.02006624       -0.91437554       -1.25602152
 C            2.71694398        2.50528474       -0.43946836
 C            3.24264066        1.41684865       -1.11243238
 C            0.72146328        3.56322943        0.20718703
 C            1.49986401        3.12449551       -0.94038504
 C           -1.37039378        2.83057507        1.24233026
 C           -0.65760414        3.48503847        0.15713329
 C           -2.82863592        0.86114198        1.15849837
 C           -2.49631246        2.11621466        0.66746174
 C           -3.44437751       -1.45433816        0.57560955
 C           -3.50860936       -0.02427641        0.32480871
 C           -2.11313841       -3.07166942       -0.71121003
 C           -1.13299194       -3.03807148       -1.77929458
 C           -3.10963315       -2.11047857       -0.67910256
 C           -1.25511811       -2.12969275       -2.82855269
 C            1.18660033       -2.09118634       -3.00786463
 C           -0.12392838       -1.94755698       -3.62365340
 C            2.85444623       -0.35643311       -2.58435049
 C            2.71658102        1.08075993       -2.42102334
 C            2.02481222       -1.00326522       -3.48410210
 C            0.85492023        2.57774993       -2.05069782
 C            1.56645362        1.71118363       -2.89401184
 C           -1.29778254        3.11102766       -1.08941262
 C           -2.49165380        2.34547886       -0.77094648
 C           -0.53300019        2.73386104       -2.18847020
 C           -3.46959606        0.17346634       -1.11549239
 C           -3.16291215       -1.11114757       -1.72991936
 C           -2.26596009       -1.15105268       -2.79451063
 C           -2.90206708        1.33370962       -1.64009552
 C           -1.20112880        2.11124663       -3.23415831
 C           -2.16065466        0.00423319       -3.56705967
 C           -2.36449991        1.29355705       -2.92707770
 C           -0.05674635       -0.85463487       -4.57033955
 C            1.22470078       -0.19363401       -4.38904576
 C            0.96275634        1.19143376       -4.03477091
 C           -1.08488653        0.15657248       -4.52511591
 C           -0.44304074        1.43695701       -4.26507334
