   70
C70 / DATE: 7/ 1/2024 / Origin: Program Fullerene / C70 from database
 C            1.62847354       -0.07557862        4.40639204
 C            0.80844507       -1.24528099        4.16413455
 C            1.47033717       -2.05740974        3.16187184
 C            2.69395614       -0.07660108        3.41871778
 C            2.55432596       -1.26413750        2.60889859
 C            2.67225327        1.20130797        2.75145867
 C            0.80471020        1.09503656        4.16231692
 C            1.52834208        1.95216019        3.25208219
 C           -0.54161083       -0.79955699        3.88085341
 C           -0.51141272        0.64832234        3.76068085
 C           -1.27027390       -1.51860497        2.94622609
 C            0.66963935       -2.76693830        2.27610718
 C           -0.71587049       -2.69321181        2.43482069
 C            1.18106593       -3.05910950        1.01232555
 C            2.64832328       -1.15915725        1.22515578
 C            2.15250304       -2.21503790        0.46332416
 C            2.93882152        1.26249042        1.38746068
 C            2.87631755        0.08922671        0.61510661
 C            2.66668777        2.47915596        0.77752728
 C            0.81208114        2.71131552        2.33421163
 C            1.55291735        3.25768078        1.29261974
 C           -1.09810340        1.24203208        2.64607532
 C           -0.54149369        2.41224063        2.11590228
 C           -2.22112734       -0.84366062        2.18564824
 C           -2.02231924        0.50828137        1.89366197
 C           -3.08667789       -1.59233357        1.40068743
 C           -1.52006323       -3.51942713        1.65839616
 C           -2.79952835       -3.00515033        1.20380024
 C            0.45415467       -3.90994940        0.18292119
 C           -0.91387959       -4.23419781        0.54883569
 C            0.47193769       -3.69627412       -1.25267430
 C            2.39499627       -2.22786347       -0.90281036
 C            1.46322705       -2.90059399       -1.79437539
 C            2.88647110        0.17583149       -0.78765493
 C            2.80297903       -0.99206658       -1.54625785
 C            2.64155712        2.57225292       -0.66371913
 C            2.73762541        1.41429412       -1.42412517
 C            0.88032815        3.88144095        0.17013990
 C            1.66294805        3.59058519       -1.02005895
 C           -1.23585246        3.08273804        1.11340464
 C           -0.50465859        3.84561496        0.11277873
 C           -2.62343268        1.08364461        0.76692927
 C           -2.33508728        2.40831570        0.44469122
 C           -3.52559221       -1.05514639        0.12941352
 C           -3.28053563        0.27897920       -0.17066296
 C           -2.91937833       -3.29348520       -0.21669809
 C           -1.74545174       -4.02705484       -0.62737178
 C           -0.90093063       -3.46329869       -1.66395405
 C           -3.22044669       -2.04813403       -0.88707775
 C           -1.23574752       -2.24242196       -2.25929957
 C           -2.48147449       -1.64881693       -1.99869137
 C            1.09553848       -1.94115348       -2.81505356
 C            2.15805349       -0.95731291       -2.84910285
 C           -0.23037545       -1.51800234       -2.91593420
 C            2.36794570        1.46749067       -2.76786618
 C            1.89829878        0.26731003       -3.43182681
 C            1.03771562        3.52286507       -2.25761666
 C            1.53064046        2.56323612       -3.22864554
 C           -1.17024927        3.66838145       -1.16794572
 C           -2.33531366        2.82667954       -0.94850654
 C           -0.41652791        3.52531468       -2.33049809
 C           -3.22653676        0.62150098       -1.52011759
 C           -2.73165221       -0.36598695       -2.46703277
 C           -2.72724916        1.92227569       -1.92435432
 C           -0.50340531       -0.26770393       -3.47671684
 C            0.55130479        0.54033457       -3.90384174
 C            0.38607061        1.98472850       -3.91379594
 C           -0.81786292        2.55847542       -3.34218819
 C           -1.76586979        0.29205089       -3.32032404
 C           -1.90500148        1.72706800       -3.10877881
