   70
C70 / DATE: 7/ 1/2024 / Origin: Program Fullerene / C70 from database
 C            1.31444605       -0.20259121        4.56948427
 C            2.61208530       -0.44167815        3.96770688
 C            2.60098540       -1.77874938        3.40348746
 C            0.47088767       -1.35060978        4.28530122
 C            1.29304803       -2.36342450        3.64790529
 C           -0.71568993       -0.87514973        3.59079240
 C            0.58450289        0.98896648        4.18280440
 C           -0.69772237        0.57388991        3.63272270
 C            1.26855818        2.01983128        3.55257812
 C            3.08359888        0.47224454        2.94072129
 C            2.51646330        1.73308411        2.84776180
 C            3.08134486       -1.69189312        2.03312194
 C            3.28611909       -0.28997094        1.71890456
 C            2.50073017       -2.50084030        1.06760176
 C            0.72605713       -3.12903332        2.64131564
 C            1.51358801       -3.40686033        1.45529502
 C           -1.11830482       -1.52026156        2.42572694
 C           -0.60410993       -2.78587550        2.16065417
 C           -1.67407015       -0.77476871        1.38192266
 C           -1.23315861        1.29108766        2.56911823
 C           -1.85976845        0.60366107        1.52379335
 C            0.51252553        2.92952276        2.71255812
 C           -0.79632197        2.59996008        2.36384620
 C            2.41018094        2.34621649        1.53768607
 C            1.41541603        3.38828692        1.66991099
 C            2.81479437        0.20507064        0.49988648
 C            2.39394155        1.53653912        0.40213415
 C            2.52044659       -2.07120190       -0.25667417
 C            2.50650343       -0.69388263       -0.52325758
 C            2.06377897       -2.95982776       -1.22255356
 C            0.57436016       -3.88562904        0.45775459
 C           -0.72393903       -3.33978741        0.82424148
 C            0.95140652       -3.82824903       -0.87416954
 C           -1.98770300       -1.39560397        0.16997454
 C           -1.44993655       -2.65151960       -0.13927716
 C           -2.71356589       -0.70130394       -0.79872737
 C           -2.48481883        1.32782888        0.50652709
 C           -2.94955999        0.67327369       -0.64001560
 C           -1.40957577        3.35921735        1.37820775
 C           -2.37665349        2.72121379        0.50269754
 C            0.85727078        3.91314597        0.51877514
 C           -0.56295245        4.19778332        0.54568629
 C            1.68784070        1.96501455       -0.72819831
 C            1.12232905        3.23602046       -0.74259304
 C            1.93633697       -0.21030326       -1.70458244
 C            1.33535920        1.04488566       -1.71448346
 C            1.84530511       -2.48395394       -2.57322973
 C            1.76417079       -1.05624840       -2.78884567
 C           -0.07759799       -3.59669789       -1.86947956
 C           -1.28575115       -3.02021325       -1.47522842
 C            0.59816246       -3.06449755       -3.03566216
 C           -2.95799515       -1.33096847       -2.02132195
 C           -2.07928590       -2.40733906       -2.43825794
 C           -3.22345628       -0.54339028       -3.20514572
 C           -3.33752820        1.45393650       -1.73300459
 C           -3.34625940        0.88585406       -3.06453453
 C           -2.33383320        3.43381179       -0.76488266
 C           -1.04878256        4.10316178       -0.81313629
 C           -0.00054981        3.50117173       -1.62214349
 C           -2.72401833        2.75221041       -1.89945336
 C            0.34779432        1.35430063       -2.66815589
 C           -2.22757133        1.49387345       -3.77670546
 C           -0.38310154        2.54750247       -2.55913364
 C           -1.72454469        2.55279765       -2.93404710
 C            0.65880150       -0.81506913       -3.69503279
 C           -0.09264774       -2.06190794       -3.81556939
 C           -1.47287832       -2.00598849       -3.70500287
 C           -2.12472750       -0.78512521       -4.12307139
 C           -0.04093016        0.38890130       -3.61360180
 C           -1.32982946        0.42614821       -4.14942791
