   70
C70 / DATE: 7/ 1/2024 / Origin: Program Fullerene / C70 from database
 C            1.18073194        0.02707326        4.37194706
 C            2.47531385       -0.25066002        3.80102279
 C            2.40689699       -1.57241435        3.19286129
 C            0.34340491       -1.13618172        4.12306327
 C            1.00940775       -1.93868385        3.12570436
 C           -0.97713351       -0.64989032        3.81679212
 C            0.44600413        1.18443314        3.89964405
 C           -0.95260960        0.80098136        3.91012281
 C            0.92847715        1.93502640        2.82864949
 C            2.98543830        0.64227310        2.78318236
 C            2.13529667        1.58690864        2.20199834
 C            3.15727955       -1.50367209        1.95879980
 C            3.78708270       -0.19709462        1.91674581
 C            2.58695833       -1.98631737        0.78789707
 C            0.41087537       -2.09011948        1.87519208
 C            1.21357296       -2.28336305        0.75071598
 C           -1.67431291       -1.20999730        2.75764742
 C           -0.95423298       -1.81141548        1.70989380
 C           -2.88775956       -0.60880074        2.47826138
 C           -1.86425974        1.51074695        3.13326430
 C           -3.00320319        0.82257111        2.72030448
 C            0.03259390        2.76871203        2.16682846
 C           -1.40036047        2.58556075        2.36655599
 C            0.24944205        3.07814827        0.76508966
 C            2.37894705        1.98914600        0.88280329
 C            1.34076893        2.52529042        0.11926922
 C            4.14484813        0.30105352        0.67714819
 C            3.53409078        1.54510531        0.24068183
 C            3.25606448       -1.71617327       -0.40425280
 C            4.08994396       -0.59703595       -0.46354525
 C            2.76184374       -2.26369200       -1.58205959
 C            0.61699024       -2.61528855       -0.46250881
 C            1.44882441       -2.87898480       -1.54836448
 C           -1.53653065       -1.94003690        0.43496115
 C           -0.75029744       -2.35692593       -0.65580182
 C           -3.56215870       -0.90780130        1.24098852
 C           -2.88228450       -1.59212491        0.24166274
 C           -3.84233936        1.37975071        1.67987930
 C           -4.32666104        0.27147737        0.87682918
 C           -2.06271863        2.94749578        1.11636742
 C           -1.03878030        3.07160969        0.09524219
 C           -3.27505031        2.36489159        0.78285633
 C           -1.18007711        2.38782018       -1.11137692
 C            1.22560773        2.19577851       -1.23132152
 C           -0.03392052        1.93424382       -1.77604816
 C            3.58115962        1.55483025       -1.21177696
 C            4.05437459        0.24848531       -1.64035133
 C            2.36266034        1.84014465       -1.94274960
 C            2.85804581       -1.50441378       -2.82344279
 C            3.24591553       -0.17430149       -2.76396142
 C            2.24523018        0.85975835       -3.00465137
 C            0.91785638       -2.81901237       -2.88807284
 C            1.70120024       -1.83959030       -3.62533918
 C           -1.30953421       -2.43730711       -1.94476031
 C           -0.47115694       -2.46818676       -3.05586946
 C           -3.39465980       -1.50929322       -1.04842856
 C           -2.59609839       -1.96220241       -2.16350781
 C           -4.30415292        0.68739281       -0.50774951
 C           -3.48576759        1.89292911       -0.57721004
 C           -2.44875846        1.96054517       -1.51392193
 C           -4.09173988       -0.29304543       -1.46127072
 C           -2.79583249       -1.01940203       -3.25127055
 C           -2.58487472        1.24152518       -2.69759980
 C           -3.50666980        0.12079976       -2.71688444
 C           -0.14062658        1.18344335       -2.95360479
 C            0.97439575        0.49280461       -3.44005590
 C            0.79513899       -0.77189628       -4.00032550
 C           -0.52756807       -1.35932609       -3.99814627
 C           -1.40039269        0.83985629       -3.43619324
 C           -1.62016037       -0.51396150       -3.92844986
