   70
C70 / DATE: 7/ 1/2024 / Origin: Program Fullerene / C70 from database
 C            1.27892270       -0.21559171        4.20310038
 C            2.55506282       -0.50002250        3.58776696
 C            2.44627537       -1.77849014        2.90275382
 C            0.43222531       -1.38193431        4.01334970
 C            1.08030971       -2.24892334        3.05757273
 C           -0.89613345       -0.91060126        3.70359488
 C            0.53376361        0.94707034        3.75177031
 C           -0.85435054        0.54301993        3.64145855
 C            1.07213008        1.77952953        2.77478397
 C            3.08355746        0.45405509        2.63833716
 C            2.43063985        1.66435591        2.43116960
 C            2.97371062       -1.60941907        1.55650018
 C            3.54170232       -0.27928741        1.47148712
 C            2.23048266       -2.08840579        0.48804608
 C            0.38219041       -2.62983473        1.91730627
 C            1.10958761       -2.87048959        0.75592840
 C           -1.65097521       -1.57825679        2.74516061
 C           -1.00281077       -2.41674813        1.82494685
 C           -2.82843728       -0.95288900        2.36579384
 C           -1.68813339        1.17281372        2.72327384
 C           -2.86466330        0.50108329        2.40710297
 C            0.19288531        2.50014516        1.95692314
 C           -1.12487047        2.05538821        1.78724106
 C            0.69728568        3.45842906        1.08230294
 C            2.93850040        2.45547254        1.40982893
 C            2.12784305        3.53067159        0.88520799
 C            3.54586970        0.38500251        0.24888970
 C            3.56697608        1.78011363        0.28391607
 C            2.34940789       -1.47408140       -0.76012759
 C            3.04654902       -0.26432109       -0.88653787
 C            1.58274936       -1.95285914       -1.82739912
 C            0.47850122       -3.50661238       -0.29567333
 C            0.83221031       -3.11235940       -1.64636301
 C           -1.67315622       -2.85312587        0.67106230
 C           -0.96408666       -3.63570641       -0.24440993
 C           -3.51876442       -1.38277503        1.16985488
 C           -2.90988301       -2.29117356        0.31327907
 C           -3.66728488        0.95838129        1.29875707
 C           -4.16634672       -0.21231604        0.59942635
 C           -1.79472486        2.35764099        0.58924334
 C           -3.05003638        1.82720531        0.32622946
 C            0.06358368        3.61880440       -0.21390015
 C           -1.06891835        2.86311223       -0.48482667
 C            2.38559645        3.63019679       -0.54148497
 C            3.28161532        2.54603216       -0.91545923
 C            1.10545558        3.75774934       -1.21705677
 C            3.00538651        0.42044849       -2.10021920
 C            3.06387785        1.87432966       -2.10895501
 C            1.24055917       -1.08772808       -2.86564104
 C            2.05311544        0.00768693       -3.11716633
 C           -0.07914688       -1.05890821       -3.32205580
 C           -0.33624389       -3.33297974       -2.48044084
 C           -1.42197569       -3.76586446       -1.61377157
 C           -0.82342373       -2.23174688       -3.28820751
 C           -3.33587347       -2.30033397       -1.01713818
 C           -2.61559669       -3.06155096       -2.01472102
 C           -2.25787455       -2.14152811       -3.08522001
 C           -4.03196389        0.02908826       -0.82572589
 C           -3.28931186        1.26971305       -0.99186305
 C           -3.72828474       -1.04754638       -1.64142838
 C           -2.83312673       -0.84563006       -2.76391929
 C           -1.28401598        2.33375476       -1.76326075
 C           -0.75044610        0.16435949       -3.38319904
 C           -2.26652204        1.35490263       -1.93550133
 C           -2.00775165        0.27528352       -2.78916573
 C            0.93736447        3.15604288       -2.45497701
 C            2.02092880        2.35391816       -2.99986088
 C            1.43602468        1.20247122       -3.66036375
 C           -0.31024293        2.47111706       -2.74847367
 C           -0.00746975        1.32065181       -3.57885257
