   70
C70 / DATE: 7/ 1/2024 / Origin: Program Fullerene / C70 from database
 C            1.67445463        0.01565548        4.48493845
 C            0.84409528       -1.16795674        4.36943371
 C            1.38720296       -2.00453391        3.31120103
 C            2.67856809       -0.04773333        3.44025278
 C            2.52236640       -1.30763838        2.73502191
 C            2.60142205        1.17892387        2.66527495
 C            0.83489973        1.16775518        4.21349117
 C            1.45476685        1.93048698        3.14481013
 C           -0.53674348       -0.73469550        4.26206181
 C           -0.52389582        0.69862355        4.01497888
 C           -1.40429809       -1.52730471        3.53020238
 C            0.49987185       -2.65742781        2.46256228
 C           -0.85631811       -2.65152633        2.79070234
 C            0.88059516       -2.91238111        1.14199652
 C            2.67225747       -1.29687324        1.35526247
 C            1.94388730       -2.19810525        0.57465797
 C            2.81004460        1.09546122        1.29139126
 C            3.16949037       -0.14056415        0.75806735
 C            2.20991884        2.04057698        0.45170725
 C            0.63383494        2.53052101        2.20094188
 C            1.18131982        2.83904324        0.95731019
 C           -1.24300021        1.22199575        2.94310687
 C           -0.74978527        2.35974942        2.30650934
 C           -2.37207379       -0.89108687        2.65456572
 C           -2.19794376        0.43724368        2.28738469
 C           -1.83526036       -3.00362796        1.78197077
 C           -2.72785132       -1.85857450        1.63330888
 C            0.01165162       -3.62266323        0.31395031
 C           -1.40418071       -3.67049128        0.64711573
 C            0.12578392       -3.47836662       -1.12655445
 C            2.10065232       -2.16148507       -0.81475594
 C            1.05501511       -2.58432503       -1.63579456
 C            3.53298027       -0.19847503       -0.57503405
 C            3.09304843       -1.34368544       -1.34936062
 C            2.42871719        1.95451366       -0.93019421
 C            3.31145702        0.97673189       -1.39385353
 C            1.59046289        2.63701461       -1.82730491
 C            0.45112906        3.64543520        0.09857951
 C            0.59884605        3.47425499       -1.33204848
 C           -1.57344270        3.00986087        1.39809172
 C           -0.95897509        3.83984374        0.37883506
 C           -2.74893998        0.88789825        1.08581329
 C           -2.63136672        2.24110950        0.76794838
 C           -3.06091512       -1.41000793        0.35738667
 C           -3.13031210       -0.03561706        0.10144355
 C           -2.15483820       -3.48806298       -0.57896252
 C           -1.21278502       -3.48205407       -1.68415088
 C           -2.98914169       -2.30785224       -0.70892907
 C           -1.59101989       -2.40561399       -2.58215447
 C           -2.81003749       -1.80985576       -2.06105309
 C            0.74083376       -1.85834318       -2.78840019
 C           -0.59633951       -1.57476733       -3.08848287
 C            2.98959336       -0.91469531       -2.73253866
 C            3.24364150        0.51793210       -2.76702320
 C            1.74884211       -1.15981802       -3.44010769
 C            1.41980181        2.16554883       -3.12798463
 C            2.27096631        1.11694426       -3.64879313
 C            1.40514572        0.05782237       -4.14419230
 C           -0.94977471       -0.31274607       -3.57889886
 C            0.07122279        1.91129901       -3.60408452
 C            0.03667435        0.53315802       -4.06970699
 C           -0.73479926        3.39581580       -1.91380279
 C           -1.69600429        3.65269807       -0.85804462
 C           -2.74278315        2.68165319       -0.61311056
 C           -0.99949673        2.41231109       -2.86598768
 C           -3.38081527        0.39876495       -1.20003326
 C           -3.05850143       -0.47241606       -2.31487144
 C           -2.15551805        0.26003828       -3.18750179
 C           -3.02648765        1.74923028       -1.59471706
 C           -2.17181696        1.65545616       -2.77384417
