   70
C70 / DATE: 7/ 1/2024 / Origin: Program Fullerene / C70 from database
 C            1.30368144       -0.02826174        4.32277859
 C            2.56233393       -0.29916917        3.66808492
 C            2.57492235       -1.70224200        3.29849371
 C            0.48122332       -1.22719571        4.22724136
 C            1.23006707       -2.22120853        3.48487609
 C           -0.81756364       -0.82317958        3.72764220
 C            0.50014577        1.08107744        3.84857413
 C           -0.87415275        0.62333485        3.83178412
 C            0.94760494        1.87652288        2.79378939
 C            2.90554050        0.46440900        2.48682047
 C            2.11486660        1.53466548        2.09062566
 C            3.18061083       -1.81006311        1.98207401
 C            3.35978740       -0.46069990        1.46512583
 C            2.70581639       -2.79088785        1.12717980
 C            0.62145371       -2.88146111        2.42063067
 C            1.44696808       -3.44364093        1.44908361
 C           -1.31922161       -1.43891037        2.58469159
 C           -0.71668017       -2.60752628        2.10832430
 C           -2.23422770       -0.75092384        1.78092709
 C           -1.77816987        1.30690657        3.03747497
 C           -2.58898746        0.55170253        2.09823546
 C            0.03151901        2.75285152        2.20058622
 C           -1.33302934        2.50431914        2.34270503
 C            0.45593063        3.56536153        1.15378273
 C            2.28108741        2.00972340        0.79711061
 C            1.69670366        3.22630733        0.48742220
 C            3.05690772       -0.18415958        0.12954128
 C            2.62518491        1.10478298       -0.21949721
 C            2.69603531       -2.53301889       -0.29920042
 C            2.89980112       -1.24126209       -0.77347687
 C            0.87291460       -3.92635042        0.20784345
 C            1.63835545       -3.34142564       -0.88703644
 C           -1.32733913       -3.29215711        1.05991426
 C           -0.50422547       -4.01615691        0.10268947
 C           -2.60438646       -1.27340523        0.54488702
 C           -2.38310876       -2.62645623        0.31684292
 C           -2.91500085       -0.40669761       -0.52045771
 C           -2.96809613        1.45099973        1.02872487
 C           -2.21551132        2.68664781        1.20168715
 C           -3.15625312        0.95502082       -0.25660743
 C           -0.49440431        3.96515867        0.12503143
 C           -1.75084175        3.36119837        0.07617894
 C            1.59461629        3.63494231       -0.89302020
 C            0.25740109        4.16407309       -1.10184449
 C            2.39962016        1.42145693       -1.56734514
 C            1.85320212        2.65104033       -1.91843738
 C            2.53753390       -0.97148122       -2.08541551
 C            2.31198327        0.39729949       -2.49910883
 C            0.98771160       -2.87982233       -2.03246480
 C            1.53639297       -1.80842245       -2.73147319
 C           -1.10774465       -3.86571854       -1.20539972
 C           -2.34119565       -3.11667698       -1.03971599
 C           -0.34008192       -3.22993300       -2.26290144
 C           -2.88509069       -0.87526135       -1.84891661
 C           -2.41853634       -2.15466936       -2.11126083
 C           -1.22497272       -2.29020494       -2.93267378
 C           -2.74278459        0.03263256       -2.88755906
 C           -3.15106953        1.88159911       -1.29483578
 C           -2.34541136        3.08546905       -1.15716806
 C           -3.03427999        1.42562427       -2.65889062
 C           -0.25642731        3.60601963       -2.33546759
 C            0.74370283        2.68305320       -2.85977327
 C           -1.59563635        3.26038692       -2.39594222
 C           -1.99650297        2.20918730       -3.30815982
 C            1.21477750        0.40577206       -3.45478238
 C            0.67777943       -0.94608313       -3.53148680
 C           -0.70106297       -1.14794862       -3.53802307
 C           -1.54612669       -0.05242829       -3.70968747
 C            0.35211376        1.49773736       -3.48788508
 C           -0.98817350        1.28782638       -3.80349031
