   70
C70 / DATE: 7/ 1/2024 / Origin: Program Fullerene / C70 from database
 C            1.03597784       -0.11357923        4.85596914
 C            2.30502204       -0.33357897        4.18755924
 C            2.22057974       -1.61189118        3.50310285
 C            0.18871241       -1.26407177        4.57811411
 C            0.84138831       -2.04868095        3.54895854
 C           -1.14750150       -0.77784927        4.33101274
 C            0.26909518        1.08137984        4.54846473
 C           -1.11230735        0.67739816        4.37792973
 C            0.79802614        2.04302323        3.69542719
 C            2.78149947        0.64706700        3.22721342
 C            2.11002542        1.85150606        3.08587556
 C            2.83467473       -1.45536614        2.20305998
 C            3.21299239       -0.06531690        2.03458608
 C            2.26214177       -2.08613041        1.11527910
 C            0.19171554       -2.30430955        2.33966150
 C            0.96611970       -2.60609587        1.21683567
 C           -1.80405388       -1.15180297        3.09482963
 C           -1.14997609       -1.94714717        2.15621699
 C           -1.85971883        1.16848247        3.23119250
 C           -2.50462468        0.02090798        2.62115309
 C           -0.06084128        2.68373089        2.70738320
 C           -1.30656420        2.14134064        2.39765526
 C            2.08306693        2.48788818        1.78420221
 C            0.79522092        3.14684284        1.63309825
 C            3.05028359        0.51639135        0.77150806
 C            2.64500664        1.85398721        0.67746212
 C            2.70452533       -1.69460813       -0.13444105
 C            2.94151834       -0.32800080       -0.34804919
 C            2.36788402       -2.52149600       -1.19030420
 C            0.32829079       -3.02938379        0.04714172
 C            1.11898825       -3.25041009       -1.08230708
 C           -1.67961290       -1.99336848        0.86643739
 C           -1.03292450       -2.75507123       -0.10400215
 C           -2.80984518        0.09462679        1.27460658
 C           -2.62174997       -1.03165278        0.47690157
 C           -1.79359755        2.25291897        1.09133993
 C           -2.76412674        1.33854998        0.66719592
 C            0.27022066        3.28033468        0.35565474
 C           -1.08131647        3.00415901        0.14485426
 C            2.35695442        2.39201145       -0.57004100
 C            1.15575632        3.19855093       -0.71621540
 C            2.80432688        0.22645888       -1.63041650
 C            2.48254914        1.57014756       -1.75589913
 C            2.49013829       -2.02508416       -2.53768982
 C            2.55636120       -0.59517201       -2.72747140
 C            0.51838555       -3.30057662       -2.40332636
 C            1.36763822       -2.53578546       -3.30466381
 C           -1.65423313       -2.93152455       -1.33707283
 C           -0.85753922       -3.19432137       -2.52473127
 C           -3.05845346       -0.98471934       -0.84996738
 C           -2.73029331       -2.02948366       -1.70940114
 C           -3.31802959        1.45081330       -0.59773709
 C           -3.48777541        0.23733318       -1.38257756
 C           -1.60439355        3.16581868       -1.13624060
 C           -2.84011382        2.49281561       -1.47929121
 C            0.64937696        3.01086754       -2.06467370
 C            1.43145862        1.95680070       -2.68676795
 C           -0.71547046        3.05815905       -2.28245537
 C            1.50296850       -0.21984470       -3.66118812
 C            0.79576103       -1.42784160       -4.05200735
 C            0.80644097        0.96840982       -3.44646487
 C           -1.40566845       -2.40195111       -3.61320749
 C           -2.61639496       -1.76319750       -3.13217736
 C           -0.57677925       -1.38085044       -4.23555845
 C           -3.20713576        0.56754015       -2.77491984
 C           -2.68697127        1.92079429       -2.80622362
 C           -1.31051320        2.12225171       -3.21905921
 C           -0.57577579        1.02584798       -3.67177143
 C           -2.59971952       -0.38466760       -3.57762993
 C           -1.26707097       -0.11032431       -4.10193215
