   70
C70 / DATE: 7/ 1/2024 / Origin: Program Fullerene / C70 from database
 C            1.17730684        0.13390797        4.36672368
 C            2.42599368       -0.18226247        3.71162712
 C            2.40539426       -1.60262349        3.41394974
 C            0.34761606       -1.06276952        4.34217843
 C            1.03022794       -2.05108203        3.54124762
 C           -0.98278695       -0.66361463        3.95000359
 C            0.37706880        1.21860420        3.83930713
 C           -1.00886240        0.78701747        3.86985189
 C            0.81943649        1.94366345        2.73855674
 C            2.75909524        0.50976766        2.48115150
 C            1.88807346        1.46583440        1.96421090
 C            3.06952969       -1.79135324        2.14134506
 C            3.33025752       -0.47251927        1.57920808
 C            2.57968793       -2.77430256        1.29801916
 C            0.39532289       -2.59252342        2.42264024
 C            1.19554709       -3.20907429        1.45935100
 C           -1.65145623       -1.38060239        2.97053616
 C           -0.91495073       -2.19759441        2.09008327
 C           -2.85745369       -0.83552989        2.55397129
 C           -1.92217594        1.38881969        3.00262506
 C           -2.97825181        0.61541479        2.51823335
 C           -0.09619747        2.81109477        2.16167732
 C           -1.51792198        2.51678067        2.28662502
 C            0.14139745        3.31966599        0.82793884
 C            1.95007067        1.76368907        0.59897992
 C            1.22298961        2.84669325        0.09950341
 C            3.18725167       -0.28798965        0.20678487
 C            2.64491817        0.90889137       -0.27232435
 C            2.82089495       -2.63880310       -0.12360811
 C            3.22441840       -1.40480064       -0.62963138
 C            0.66046128       -3.45666603        0.13401011
 C            1.76473369       -3.36732623       -0.80311694
 C           -1.43122111       -2.51989298        0.82059282
 C           -0.56617851       -2.90557166       -0.19960290
 C           -3.51378895       -1.37158643        1.38727254
 C           -2.72748977       -2.15965170        0.46993000
 C           -3.62930387        0.97165395        1.26678178
 C           -4.08602115       -0.26006527        0.64738692
 C           -2.15069431        2.84227955        1.01616260
 C           -1.14407363        3.45508172        0.16283017
 C           -3.08676500        1.97413241        0.46841628
 C           -1.19994224        3.28543620       -1.21693092
 C            1.24747638        3.12511876       -1.25973777
 C           -0.01225844        3.40375980       -1.93596535
 C            2.65511587        1.15823710       -1.64739615
 C            2.05922580        2.31265110       -2.14145518
 C            3.18017454       -1.21714968       -2.00538146
 C            2.92486731        0.11226472       -2.53042318
 C            1.49968182       -3.05570590       -2.12662491
 C            2.41608482       -2.15946298       -2.80615993
 C           -0.81791344       -2.49275091       -1.51246753
 C            0.15026481       -2.65628952       -2.49611220
 C           -2.96239787       -1.64956539       -0.86969379
 C           -3.81168271       -0.47472003       -0.75917084
 C           -1.90231160       -1.65797620       -1.77284074
 C           -3.22405353        1.90129168       -0.91723469
 C           -2.28130729        2.60299613       -1.77866317
 C           -3.53293280        0.62504458       -1.55153386
 C           -1.77334100       -0.63435691       -2.72077455
 C           -2.09579717        1.78313187       -2.97131214
 C           -2.62388616        0.46791435       -2.66953739
 C            0.07155798        2.85357524       -3.27488329
 C            1.38771578        2.25862639       -3.42826682
 C           -0.91431228        1.87540551       -3.68827438
 C            2.12328523       -0.03431167       -3.74085412
 C            1.65582251       -1.40408939       -3.78269050
 C            0.24615720       -1.65705171       -3.54552690
 C           -0.63497578       -0.57777820       -3.53211384
 C            1.22094460        0.96666044       -4.06188878
 C           -0.20336259        0.65430750       -4.03751556
