   70
C70 / DATE: 7/ 1/2024 / Origin: Program Fullerene / C70 from database
 C            1.13667294        0.02240498        4.32601814
 C            2.47020180       -0.30201296        3.88300259
 C            2.48332338       -1.71709865        3.54611577
 C            0.33031249       -1.18388695        4.20340117
 C            1.09764364       -2.13715235        3.43923533
 C           -0.95594606       -0.78203606        3.69260831
 C            0.41446976        1.07802353        3.64438276
 C           -0.97186562        0.66958571        3.65559928
 C            0.92393904        1.63989683        2.47434676
 C            3.00491303        0.40127445        2.73885876
 C            2.18081684        1.24500376        1.98676386
 C            3.34737535       -1.87829616        2.39089248
 C            3.85002439       -0.55474625        2.04796155
 C            2.93187128       -2.72730107        1.37330569
 C            0.61849395       -2.57276450        2.20323370
 C            1.53124145       -3.12885359        1.31448709
 C           -1.50228587       -1.45882716        2.60998262
 C           -0.64298634       -2.15355323        1.74078805
 C           -2.68441650       -0.92642701        2.11717789
 C           -1.84195905        1.26992625        2.76035147
 C           -2.90866782        0.49744470        2.31112548
 C            0.03011132        2.29824614        1.62468512
 C           -1.34506800        2.26303424        1.91657573
 C            0.47598717        2.72999953        0.37157960
 C            2.52544099        1.50662405        0.65765547
 C            1.60816399        2.13869095       -0.18439357
 C            4.20384422       -0.28176713        0.73681043
 C            3.67232909        0.92023600        0.12305964
 C            3.38278632       -2.48085975        0.01360592
 C            4.11798147       -1.33597479       -0.26306230
 C            1.17273420       -3.28598348       -0.07530371
 C            2.31535146       -2.89217820       -0.88743394
 C           -0.98211914       -2.30447724        0.37898457
 C           -0.09944818       -2.94139533       -0.50299219
 C           -3.11395483       -1.24819876        0.77765698
 C           -2.20781925       -1.81996151       -0.10431994
 C           -3.72562958        0.97613101        1.21103013
 C           -3.95903262       -0.15464922        0.32575206
 C           -2.24697332        2.92400001        1.08848986
 C           -3.45839475        2.23043017        0.67615275
 C           -0.38179157        3.43532416       -0.46740633
 C           -1.74763030        3.66303543       -0.04979091
 C           -0.39790258        3.09208690       -1.87729699
 C            1.66691633        1.95511692       -1.57339893
 C            0.51226988        2.14260523       -2.32268368
 C            3.76664453        0.73173541       -1.30720498
 C            3.95531189       -0.69055287       -1.55113859
 C            2.66596054        1.17622693       -2.13150565
 C            2.09057666       -2.21596394       -2.08823573
 C            2.88893760       -1.12639925       -2.43643212
 C            2.26211722        0.07239166       -2.97628455
 C           -0.28033783       -2.79754921       -1.87124881
 C            0.83619541       -2.33057686       -2.67930581
 C           -2.43788335       -1.70847446       -1.48058351
 C           -1.48343657       -2.17294370       -2.37624579
 C           -4.10145968        0.05648222       -1.03611627
 C           -3.41991162       -0.83741651       -1.95461190
 C           -3.64743661        2.46233907       -0.74637347
 C           -2.61819839        3.39211223       -1.18287118
 C           -1.77938780        3.04797413       -2.31990799
 C           -4.00625759        1.40616451       -1.57706343
 C           -3.16309500       -0.09368180       -3.17482381
 C           -2.18260977        2.04003632       -3.18288154
 C           -3.40841527        1.31079359       -2.89957063
 C            0.11819426        1.13972513       -3.21881633
 C            0.93439561        0.01367052       -3.38892825
 C            0.33975814       -1.23961044       -3.50007598
 C           -1.10719339       -1.34443299       -3.51456154
 C           -1.20045082        1.08589273       -3.67214451
 C           -1.85334257       -0.20866202       -3.78666214
