   70
C70 / DATE: 7/ 1/2024 / Origin: Program Fullerene / C70 from database
 C            1.64487614       -0.07310358        4.60139827
 C            0.80592346       -1.23906766        4.39797734
 C            1.40395427       -2.04883253        3.35051960
 C            2.69161619       -0.10199528        3.59502008
 C            2.53724832       -1.31144996        2.82200767
 C            2.66441885        1.15803954        2.88999258
 C            0.82972062        1.10238661        4.35150036
 C            1.53108169        1.92528196        3.38953721
 C           -0.55679424       -0.77980534        4.21510608
 C           -0.50604761        0.66020886        4.01286229
 C           -1.38690959       -1.53422352        3.40338932
 C            0.56484691       -2.70131830        2.44872177
 C           -0.81614747       -2.64557449        2.65779897
 C            1.04837396       -2.99008843        1.16806481
 C            2.68314989       -1.25363255        1.44479101
 C            2.18255254       -2.31531992        0.70190457
 C            2.91170349        1.17616906        1.51906585
 C            2.92563248       -0.02955056        0.80041454
 C            2.58956601        2.35066459        0.84935315
 C            0.79208274        2.65474038        2.46519804
 C            1.49579738        3.15128631        1.37339200
 C           -1.11644577        1.21739521        2.89171084
 C           -0.57405491        2.37508231        2.31844433
 C           -2.29630383       -0.85235949        2.50101824
 C           -2.09112916        0.48946546        2.19953526
 C           -1.72355601       -2.92061294        1.55627924
 C           -2.60512229       -1.77086148        1.42001360
 C            0.21402188       -3.65110760        0.26829411
 C           -1.22411437       -3.52049501        0.41318239
 C            0.51724620       -3.63740672       -1.15230948
 C            2.56804502       -2.41543948       -0.62813852
 C            1.73607700       -3.13676515       -1.57511906
 C            2.95592100       -0.00458963       -0.60043552
 C            3.05633091       -1.21582090       -1.28083167
 C            2.48629241        2.35301287       -0.59641268
 C            2.55121220        1.14845635       -1.28638595
 C            0.78251413        3.73094110        0.25212459
 C            1.48079215        3.33680581       -0.96163073
 C           -1.30326771        3.03357910        1.33164348
 C           -0.60425586        3.75175342        0.27700923
 C           -2.62417050        1.00078285        1.01778495
 C           -2.42614438        2.34579712        0.72298070
 C           -2.86341440       -1.25197503        0.15524149
 C           -3.06694351        0.12586663        0.01925641
 C           -1.75926365       -3.12932731       -0.87840893
 C           -0.70108234       -3.27288328       -1.86571112
 C           -2.62170304       -2.04310885       -0.97516985
 C           -0.65589570       -2.38899586       -2.94739686
 C            1.80488495       -2.44156046       -2.84417441
 C            2.66763384       -1.28339817       -2.67261872
 C            0.57346609       -1.99301218       -3.47055034
 C            1.99029090        1.06428177       -2.56920972
 C            1.99996355       -0.14196256       -3.25554874
 C            0.76472076       -0.60691056       -3.86888849
 C            0.77078971        3.16452236       -2.13977759
 C            1.08405407        2.03182678       -2.99220750
 C           -1.35159145        3.57781232       -0.95884159
 C           -2.54981475        2.81506392       -0.64688843
 C           -0.67295562        3.34447209       -2.15055098
 C           -3.50979220        0.63741104       -1.19663748
 C           -3.09899288        1.96971267       -1.60044288
 C           -2.84220742       -1.51645571       -2.24165516
 C           -1.78204548       -1.61927825       -3.23357110
 C           -3.44920126       -0.20770372       -2.36968414
 C           -0.33486106        0.24780568       -3.91415540
 C           -0.14162569        1.60605037       -3.64942552
 C           -1.23004608        2.42614962       -3.13163628
 C           -2.47704892        1.85777227       -2.91181559
 C           -1.61206705       -0.30341139       -3.83093014
 C           -2.73178553        0.51880741       -3.40537379
