   70
C70 / DATE: 7/ 1/2024 / Origin: Program Fullerene / C70 from database
 C            1.27683570        0.19605625        4.94583676
 C            2.47720144       -0.11777511        4.20120317
 C            2.49776479       -1.55511755        4.00448326
 C            0.41706363       -0.97891906        4.91626924
 C            1.18511934       -2.07632920        4.36543260
 C           -0.82216353       -0.59939706        4.25852713
 C            0.48032029        1.32018050        4.51108826
 C           -0.87845146        0.84034648        4.30444849
 C            0.85798244        2.02725601        3.29916534
 C            2.69436527        0.50974199        2.90418533
 C            1.81851287        1.49266263        2.44151514
 C            3.01551044       -1.80672924        2.66928250
 C            3.13499721       -0.52445843        1.98765992
 C            2.53084377       -2.89723815        1.96339660
 C            0.55216526       -2.94919837        3.49112860
 C            1.34802770       -3.58449129        2.46031576
 C           -1.20334628       -1.26359277        3.09095249
 C           -0.71233617       -2.54865610        2.87799228
 C           -1.78608879       -0.55379134        2.02396882
 C           -1.39768768        1.53491493        3.15342429
 C           -0.38716845        2.48147284        2.72937762
 C           -2.04625300        0.81926128        2.15254986
 C           -0.42076477        2.83266768        1.39643745
 C            1.66944977        1.68595555        1.06255705
 C            0.69663317        2.57936678        0.59914649
 C            2.78087391       -0.42349197        0.64614354
 C            2.24911003        0.77892557        0.16941398
 C            2.40113617       -2.79761005        0.52214731
 C            2.64746166       -1.58299681       -0.12099043
 C            0.47318322       -3.83989552        1.33263593
 C           -0.76723142       -3.12509920        1.54848132
 C            1.21602543       -3.53688266        0.13264615
 C           -1.92817876       -1.16840645        0.76569874
 C           -1.27264658       -2.36994290        0.49778303
 C           -2.48379573       -0.45503196       -0.30258167
 C           -2.36430430        1.54229555        1.00643007
 C           -1.65431083        2.72623495        0.78435315
 C           -2.89107904        0.86430396       -0.08678546
 C           -1.78463189        3.36673527       -0.43004849
 C            0.57122257        2.80804099       -0.77683537
 C           -0.58065748        3.46546015       -1.23198638
 C            2.02986946        0.92370836       -1.20058620
 C            1.31183966        2.03060635       -1.67067256
 C            2.20931783       -1.45469178       -1.43879303
 C            2.22977797       -0.18972385       -2.02271171
 C            0.52616068       -3.04711039       -0.95880849
 C           -0.79147112       -2.60766883       -0.79172468
 C            1.28605378       -2.39307305       -1.90869549
 C           -2.32253022       -0.94065507       -1.61078982
 C           -1.40054721       -1.95864427       -1.86710978
 C           -2.88228400       -0.25282058       -2.68551682
 C           -3.38869576        1.62570005       -1.14061169
 C           -2.86923693        2.96857320       -1.29889574
 C           -3.48637763        1.04111428       -2.46021964
 C           -0.97852820        3.37743784       -2.62768908
 C           -2.41106930        3.11924647       -2.66641448
 C           -2.90334040        1.97886200       -3.41268956
 C            1.12143079        2.20299765       -3.04092519
 C           -0.14237882        2.73006445       -3.52392424
 C            1.99115414       -0.10037131       -3.38984731
 C            1.51648854        1.14731065       -3.94861326
 C            0.67908042       -2.17956848       -3.13144881
 C           -0.76107910       -2.00931993       -3.11194466
 C            1.23404145       -1.16971245       -4.00602909
 C           -2.14854383       -0.17049715       -3.93643409
 C           -1.97437140        1.24243001       -4.24715339
 C           -0.69493493        1.75508445       -4.45565553
 C            0.37979096        0.84956845       -4.81160185
 C           -1.10578637       -1.05814358       -4.15581728
 C            0.13545963       -0.57753163       -4.74552642
