   70
C70 / DATE: 7/ 1/2024 / Origin: Program Fullerene / C70 from database
 C            1.36567737       -0.00580011        4.34687616
 C            2.57822251       -0.31973316        3.62858320
 C            2.53547845       -1.73051922        3.27623215
 C            0.52140344       -1.18999216        4.34992448
 C            1.24746394       -2.25977744        3.68785312
 C           -0.78819603       -0.80534764        3.84149524
 C            0.56031007        1.09828583        3.87477439
 C           -0.81274317        0.63750539        3.75875164
 C            1.04671401        1.94513532        2.88125538
 C            2.88231769        0.42890679        2.42187973
 C            2.05559610        1.48277409        2.02113597
 C            2.93495626       -1.85017843        1.88368005
 C            3.32626842       -0.52989859        1.42647228
 C            2.20231304       -2.66457106        1.02394773
 C            0.55779706       -3.08678071        2.81357519
 C            1.16522852       -3.44409704        1.54166184
 C           -1.35992693       -1.54584845        2.81907277
 C           -0.84290048       -2.81126671        2.54018715
 C           -2.18495068       -0.91018978        1.88720354
 C           -1.61496982        1.26487943        2.81392482
 C           -2.24162416        0.49116899        1.82065509
 C            0.14743315        2.89312939        2.41099930
 C           -1.26731704        2.57744579        2.52284817
 C            0.34224219        3.47222784        1.09959559
 C            2.04209513        1.83664595        0.66394560
 C            1.15798696        2.81193946        0.19429919
 C            3.14958215       -0.21816708        0.08976103
 C            2.78992300        1.08469722       -0.24429646
 C            2.25831673       -2.41371984       -0.34981453
 C            2.87947383       -1.24845170       -0.80988950
 C            1.45168107       -3.15243473       -1.21498086
 C            0.08534896       -3.88138211        0.67064151
 C           -1.16864023       -3.46601256        1.28567479
 C            0.24879495       -3.77987601       -0.70298037
 C           -2.78145010       -1.67190401        0.88927320
 C           -2.18168609       -2.93806699        0.50068946
 C           -3.25326700       -1.02513099       -0.31494769
 C           -2.84241279        1.11819689        0.70905826
 C           -3.27776412        0.36062668       -0.38550407
 C           -1.95963431        3.27546662        1.47108714
 C           -0.95333817        3.94236712        0.65737325
 C           -2.79752142        2.50674221        0.58086795
 C           -1.32184550        3.74323767       -0.72741093
 C           -2.62223810        3.08834548       -0.73476019
 C            0.90946717        2.92997009       -1.17863760
 C           -0.35474831        3.32822954       -1.63923312
 C            2.82763830        1.46333186       -1.58020971
 C            1.83436602        2.39985564       -2.07456393
 C            2.88000535       -0.95901715       -2.17152526
 C            3.00537766        0.42901992       -2.58307637
 C            1.13392505       -2.62694573       -2.53073630
 C            1.88949498       -1.58356982       -3.03264334
 C           -0.86145434       -3.34168597       -1.53651292
 C           -2.05241531       -2.94487117       -0.94795798
 C           -2.73327060       -1.76864281       -1.45236260
 C           -0.31398601       -2.55491469       -2.63005503
 C           -2.21216552       -1.05697734       -2.52927320
 C           -0.92019825       -1.35176781       -2.99700788
 C           -3.32122437        0.93744872       -1.65698829
 C           -2.97936826        2.33837753       -1.84253443
 C           -2.77554062        0.18870615       -2.77965425
 C           -0.79077781        2.91615892       -2.89631476
 C           -2.15369468        2.43368503       -3.03426004
 C           -2.09447118        1.11794431       -3.64989461
 C            1.38977857        1.93439212       -3.37976592
 C            2.04358067        0.66625193       -3.64396332
 C            1.22095811       -0.52422543       -3.76510525
 C           -0.16495101       -0.39061449       -3.68894396
 C            0.04984383        2.05768739       -3.70703923
 C           -0.71636827        0.85159561       -3.99241244
