   70
C70 / DATE: 7/ 1/2024 / Origin: Program Fullerene / C70 from database
 C            1.08631985        0.06627336        4.82796037
 C            2.37089510       -0.32162454        4.29781056
 C            2.29036504       -1.73949309        3.97554120
 C            0.24938556       -1.12483685        4.83572826
 C            0.88305495       -2.07832489        3.94738145
 C           -1.09980453       -0.69840252        4.53728143
 C            0.33765997        1.09654072        4.13915447
 C           -1.05459098        0.73224572        4.28100477
 C            0.77300046        1.57288676        2.90006809
 C            2.86057035        0.34747371        3.10988806
 C            2.02043055        1.19680729        2.38556770
 C            3.07296307       -1.94790526        2.78176178
 C            3.60673339       -0.65361568        2.38540534
 C            2.42201192       -2.50354210        1.61323933
 C            0.26530896       -2.38873502        2.73030171
 C            1.04177164       -2.67760797        1.59177209
 C           -1.78432437       -1.30346531        3.41217902
 C           -1.12404426       -2.23227125        2.61073211
 C           -1.93977765        0.99805750        3.16810854
 C           -2.54915031       -0.25212901        2.76287875
 C           -0.15839713        2.16384040        2.04329289
 C           -1.51757698        1.84422643        2.16316146
 C            0.28624971        2.75913072        0.85935278
 C            2.29566883        1.43477305        1.03254180
 C            1.52276688        2.36936453        0.33372265
 C            3.57054218       -0.60630940        0.94212829
 C            3.04292757       -1.87115109        0.47255021
 C            3.10321432        0.53841280        0.31191917
 C            2.35619222       -1.84646259       -0.73123152
 C            0.42313877       -2.82783522        0.34914976
 C            1.09625082       -2.44826423       -0.82088542
 C           -1.74822555       -2.58762995        1.42280786
 C           -0.94162545       -3.04383126        0.31040663
 C           -2.89554997       -0.41981243        1.42037913
 C           -2.76400503       -1.69436966        0.88268463
 C           -2.29730210        1.88716878        1.02316430
 C           -2.85441169        0.68645611        0.55694291
 C           -0.66541107        3.36829400        0.03609133
 C           -2.04047479        2.92154314        0.14401259
 C           -0.38753301        3.59688213       -1.37073251
 C            1.82124831        2.61177962       -1.00797287
 C            0.81555782        3.16536859       -1.89804352
 C            2.93106682        0.45190829       -1.06634217
 C            2.64845223       -0.80729506       -1.60731039
 C            2.55219434        1.60085948       -1.74481942
 C            2.18527435       -0.92530966       -2.90823756
 C            0.41301094       -2.37984848       -2.04642245
 C            1.10279260       -1.86047727       -3.14847852
 C           -1.67327120       -2.75047374       -0.90309228
 C           -2.77428832       -1.86534891       -0.55309079
 C           -0.98606183       -2.50503573       -2.08382574
 C           -3.08593182        0.50595698       -0.81801908
 C           -3.03739253       -0.77788657       -1.37679316
 C           -2.61846969        2.88291029       -1.17663446
 C           -1.61015624        3.35094907       -2.11336888
 C           -3.12727763        1.61747020       -1.66033614
 C           -1.58614174        2.42169443       -3.22737728
 C           -2.68931833        1.48976322       -3.03758029
 C            0.82935209        2.38996341       -3.13298852
 C            1.98376563        1.50468965       -3.07792321
 C            1.92636451        0.26646919       -3.69655975
 C           -0.36627022        1.95039733       -3.71079358
 C            0.38503415       -1.39223388       -4.31785769
 C            0.81333577       -0.02584535       -4.57902637
 C           -0.36281514        0.82407405       -4.53161680
 C           -1.71748411       -1.89381582       -3.10182002
 C           -2.74453001       -0.93408732       -2.73134647
 C           -2.60234677        0.22589591       -3.59535948
 C           -1.05733489       -1.40622472       -4.29255914
 C           -1.52357632       -0.04902502       -4.52962795
