   70
C70 / DATE: 7/ 1/2024 / Origin: Program Fullerene / C70 from database
 C            1.23418127       -0.05579019        4.48226098
 C            2.56101813       -0.30664501        3.95293754
 C            2.56420230       -1.64628735        3.39185405
 C            0.42095323       -1.23190139        4.21423378
 C            1.19433681       -2.13173087        3.38917649
 C           -0.85721592       -0.78090654        3.71821778
 C            0.49485162        1.10631941        4.01879298
 C           -0.84340972        0.66537242        3.66956190
 C            1.12320515        2.05016974        3.21974851
 C            3.10128686        0.59360317        2.95086135
 C            2.46467030        1.80225990        2.70186798
 C            3.28263984       -1.60224686        2.13247544
 C            3.55787287       -0.20640089        1.82455075
 C            2.85559964       -2.43252945        1.11184222
 C            0.65137165       -2.59979227        2.19335377
 C            1.52795246       -3.02837888        1.19831405
 C           -1.44624849       -1.44056227        2.65163818
 C           -0.68052760       -2.30995820        1.85779452
 C           -2.55643831       -0.83109045        2.07814272
 C           -1.53394290        1.27178467        2.62335566
 C           -2.60579938        0.57258052        2.06985930
 C            0.35847018        2.71155145        2.17627395
 C           -0.90796888        2.25315586        1.84344854
 C            2.52563960        2.36187133        1.36565274
 C            1.27460011        3.05787212        1.10904148
 C            3.37046026        0.27019800        0.52354159
 C            3.10203595        1.63051124        0.33057515
 C            3.02950111       -1.99468302       -0.25632783
 C            3.19291119       -0.63827835       -0.53117956
 C            1.04326743       -3.20753599       -0.15928719
 C            2.10038802       -2.76801193       -1.05454675
 C           -1.17118563       -2.69053623        0.60039609
 C           -0.27921824       -2.89473924       -0.45215104
 C           -3.26500021       -1.56823375        1.13975171
 C           -2.51813440       -2.49323680        0.31250245
 C           -4.26893470       -0.92700723        0.31610606
 C           -3.38801511        1.24496960        1.13748445
 C           -4.33653043        0.51579542        0.32031487
 C           -1.40776635        2.54152852        0.57259484
 C           -2.73815312        2.23764971        0.30417894
 C            0.81725022        3.11543135       -0.20443812
 C           -0.51627637        2.76895169       -0.48595882
 C            2.91308499        2.11112195       -0.95869480
 C            1.78410920        2.99680741       -1.19684568
 C            2.91680593       -0.17309976       -1.81923716
 C            2.97574463        1.19079057       -2.07405882
 C            1.75917279       -2.29519830       -2.30731120
 C            2.30401048       -1.02117602       -2.74586996
 C           -0.62926559       -2.51274121       -1.75288146
 C            0.36595362       -2.32769954       -2.71184105
 C           -2.91839430       -2.26745720       -1.06466252
 C           -4.06018129       -1.36523550       -1.05341147
 C           -1.93512828       -2.10606552       -2.03439655
 C           -4.18552038        0.97763680       -1.04877528
 C           -3.15108872        2.00156649       -1.06436887
 C           -4.03436190       -0.18772820       -1.90331446
 C           -0.93100321        2.53466515       -1.81019509
 C           -2.18324753        1.97029916       -2.05786342
 C            1.38091566        2.83950302       -2.57290736
 C            2.17080696        1.75862652       -3.14339064
 C           -0.00846905        2.56567647       -2.85344891
 C            1.38513753       -0.47961580       -3.73799824
 C            0.19033781       -1.31159971       -3.73362126
 C            1.26899832        0.89650887       -3.88463838
 C           -0.04707356        1.51572724       -3.85455567
 C           -2.17395783       -1.23731510       -3.10121541
 C           -3.10684184       -0.13515578       -2.93280721
 C           -2.33655652        1.08140642       -3.12313041
 C           -1.05911958       -0.72851884       -3.88588273
 C           -1.18276878        0.72317742       -3.93148952
