   70
C70 / DATE: 7/ 1/2024 / Origin: Program Fullerene / C70 from database
 C            1.17402133        0.20565308        4.91548259
 C            2.46188507        0.01627363        4.28328046
 C            2.52429745       -1.35648165        3.81273840
 C            0.37055350       -0.98059774        4.65340949
 C            1.18668467       -1.91757302        3.90534267
 C           -0.88756047       -0.54852761        4.07750168
 C            0.38673538        1.36263175        4.54463521
 C           -0.94196319        0.89400127        4.19128169
 C            0.84313684        2.22176933        3.46309021
 C            2.84147245        0.87446807        3.17444424
 C            2.05841976        1.97650311        2.81884011
 C            3.18910366       -1.35865561        2.51870250
 C            3.38516952        0.02529699        2.12309613
 C            2.76562226       -2.26950830        1.56618379
 C            0.64980959       -2.53573098        2.77997554
 C            1.53362057       -3.00022571        1.80755636
 C           -1.31836238       -1.13523722        2.89278719
 C           -0.68196726       -2.28708760        2.42849808
 C           -2.12400736       -0.39854551        2.01916166
 C           -1.38259546        1.65236154        3.03802806
 C           -0.32632487        2.57259290        2.66687143
 C           -2.04418829        0.99808287        2.01622170
 C           -0.15671319        2.89330054        1.31866056
 C            2.25338079        2.53111498        1.55917266
 C            1.13071842        3.15897949        0.88078888
 C            3.20785816        0.41259347        0.79603131
 C            2.97474067        1.75871570        0.56043663
 C            2.75510038       -1.87568270        0.16857304
 C            2.82723509       -0.52870680       -0.17198860
 C            1.02487879       -3.42168735        0.51761204
 C            1.78794628       -2.72022790       -0.50510412
 C           -1.23002857       -2.95266880        1.33723711
 C           -0.34386299       -3.55455481        0.35339026
 C           -2.72350210       -1.04293456        0.93243888
 C           -2.34023505       -2.34292412        0.62038326
 C           -3.35219086       -0.27441017       -0.04547898
 C           -2.16984400        1.66547960        0.80999329
 C           -1.12442114        2.49183514        0.38311257
 C           -3.06381427        1.14790902       -0.10571366
 C           -0.90217797        2.69088373       -0.99381327
 C            1.41450850        3.11715522       -0.53376484
 C            2.50787474        2.18153353       -0.73811056
 C            0.37182728        3.07729455       -1.44407466
 C            2.29259338       -0.10647503       -1.39933794
 C            2.37459065        1.24550800       -1.75367664
 C            1.12214323       -2.22853065       -1.62058049
 C            1.48514057       -0.98375123       -2.14709308
 C           -0.91193330       -3.30996777       -0.95800813
 C           -2.23743904       -2.74692363       -0.77353468
 C           -0.10807652       -2.78983923       -1.96597503
 C           -3.43337474       -0.76543891       -1.41393934
 C           -2.74587754       -1.92524275       -1.77558779
 C           -2.96720956        1.53330208       -1.49411671
 C           -1.87949382        2.28671712       -1.92315728
 C           -3.42333698        0.40204351       -2.28777415
 C           -1.62292483        2.35465793       -3.29332409
 C            0.74765249        2.75241237       -2.73893771
 C            1.72568732        1.68761039       -2.89990851
 C           -0.27009736        2.57882217       -3.74254624
 C            0.91971965       -0.56906758       -3.35687336
 C            1.15128726        0.72501531       -3.81147009
 C            0.11757472        1.43537030       -4.55041932
 C           -0.74179981       -2.35075662       -3.11799332
 C           -2.15403509       -2.00725635       -3.03506872
 C           -0.10131221       -1.33232097       -3.92388899
 C           -2.99208691        0.27839713       -3.60029177
 C           -2.19244170        1.34643202       -4.17496362
 C           -1.09610318        0.73695163       -4.91594666
 C           -2.41568205       -0.98107990       -4.02847796
 C           -1.15600634       -0.69105066       -4.69401942
