   70
C70 / DATE: 7/ 1/2024 / Origin: Program Fullerene / C70 from database
 C            1.21016734        0.09971848        4.37823992
 C            2.48821318       -0.23148674        3.80066565
 C            2.37950704       -1.57006496        3.23144513
 C            0.36953013       -1.07667243        4.24517897
 C            0.98145540       -1.93062786        3.25389617
 C           -0.96850940       -0.61283055        3.98369773
 C            0.46646552        1.21668966        3.82825948
 C           -0.93521718        0.83734315        3.86868587
 C            0.94778894        1.90289192        2.71471763
 C            3.01045917        0.61509872        2.75155587
 C            2.17970180        1.55713829        2.13698113
 C            3.06479754       -1.53929778        1.95957090
 C            3.77833290       -0.27782737        1.91080799
 C            2.40365602       -1.96072956        0.80987677
 C            0.30647895       -2.13587344        2.05124657
 C            1.02221554       -2.22658370        0.84932748
 C           -1.73769837       -1.29583149        3.06170294
 C           -1.08544026       -1.97694890        2.01578321
 C           -2.96565879       -0.71704533        2.80608704
 C           -1.84210408        1.44565174        2.99615113
 C           -2.99331013        0.72994510        2.65514200
 C            0.05003279        2.68509487        1.99818940
 C           -1.38140138        2.43789476        2.12700794
 C            0.32694609        3.00429733        0.61120510
 C            2.47753604        1.94924545        0.82496522
 C            1.48158591        2.51392693        0.01938246
 C            4.16849838        0.18526209        0.67115460
 C            3.65014660        1.46965742        0.23852487
 C            3.01611914       -1.68524653       -0.41369726
 C            4.00521326       -0.70084243       -0.46535258
 C            2.40927113       -2.11296351       -1.58813201
 C            0.32984199       -2.47146335       -0.34069427
 C            1.03854576       -2.58310476       -1.53270262
 C           -1.77369786       -2.24443714        0.82468477
 C           -1.06137416       -2.33540686       -0.37925452
 C           -3.80181421       -1.29434271        1.78557981
 C           -3.16451012       -2.14698063        0.80926845
 C           -3.66158814        1.00127506        1.39416979
 C           -4.41329867       -0.19372943        1.06238693
 C           -1.97658797        2.57934464        0.80320117
 C           -0.92321593        2.93903834       -0.12594982
 C           -2.97374956        1.69828032        0.40241174
 C           -0.92390951        2.38839812       -1.39901742
 C            1.49607818        2.32008490       -1.36496344
 C            0.29302936        2.25735194       -2.07435656
 C            3.79433812        1.50163852       -1.20432736
 C            4.10964044        0.14584954       -1.63725891
 C            2.67815576        1.95490411       -2.00229144
 C            2.57519171       -1.34636384       -2.81735905
 C            3.28518551       -0.15163729       -2.79163473
 C            2.61284633        1.08408887       -3.16168609
 C            0.39126615       -2.21832259       -2.77807034
 C            1.32568098       -1.41157320       -3.55412771
 C           -1.71198621       -2.17560769       -1.61691039
 C           -0.95934935       -1.89279950       -2.75785672
 C           -3.84527444       -1.89489343       -0.43895510
 C           -4.49810972       -0.59605601       -0.31878506
 C           -3.06659193       -1.85930085       -1.65576952
 C           -3.03507007        1.28501228       -0.93788614
 C           -2.06284500        1.71226208       -1.85226027
 C           -3.89857385        0.25454193       -1.32233340
 C           -3.46470614       -0.65583508       -2.36002821
 C           -1.46609684       -0.98641931       -3.69151801
 C           -2.07772145        1.17070497       -3.13889543
 C           -2.60560931       -0.16828803       -3.32318109
 C            0.30920394        1.83127477       -3.39914038
 C            1.42042723        1.02185737       -3.86478656
 C            0.86934652       -0.27771625       -4.21610151
 C           -0.88953798        1.25716745       -3.96614949
 C           -0.55833881       -0.09778062       -4.38971843
