   70
C70 / DATE: 7/ 1/2024 / Origin: Program Fullerene / C70 from database
 C            1.59654872        0.20374383        4.90129946
 C            0.78414460       -0.97491239        4.66350218
 C            1.45609448       -1.79520757        3.66741322
 C            2.71215032        0.16122816        3.97419732
 C            2.71714527       -1.14617224        3.34465384
 C            2.63720705        1.33729098        3.12122795
 C            0.79355843        1.36443856        4.56504131
 C            1.54165138        2.15974327        3.60854377
 C           -0.57260374       -0.53441180        4.39211879
 C           -0.53377527        0.90445017        4.18761541
 C           -1.33958648       -1.30119635        3.53555119
 C            0.68814421       -2.37045047        2.65157533
 C           -0.69343336       -2.38017723        2.80541898
 C            1.24109817       -2.56773223        1.37764443
 C            3.18876413       -1.23497932        2.04894098
 C            2.55031468       -2.16462145        1.13872394
 C            2.83145199        1.17816149        1.74590813
 C            3.40768581       -0.00491469        1.30062857
 C            2.14315926        1.99784519        0.83917180
 C            0.82350052        2.90175363        2.69081130
 C            1.32965778        3.00562884        1.33687443
 C           -1.13383368        1.46716801        3.05833460
 C           -0.60585068        2.65625674        2.57087411
 C           -2.21317363       -0.63091613        2.59064934
 C           -1.94231248        0.68024495        2.22474974
 C           -1.52771343       -2.66311868        1.66452085
 C           -2.51418729       -1.59821664        1.56097058
 C            0.41897696       -2.88874091        0.28430453
 C           -0.95106658       -3.12030731        0.49223533
 C            0.93478323       -2.79630763       -1.02584429
 C            2.91996548       -1.73860597       -0.19159523
 C            3.33169646       -0.34536217       -0.09945705
 C            2.12856885       -2.10914263       -1.26551202
 C            2.03803169        1.63804159       -0.51678195
 C            2.79230766        0.56060709       -1.00219391
 C            1.11844094        2.30192002       -1.36152963
 C            0.21885154        3.46041154        0.53970178
 C           -0.99667354        3.11570830        1.26077664
 C            0.22037795        3.24114569       -0.82503869
 C           -2.26691204        1.11400842        0.92800465
 C           -1.98938453        2.43924318        0.56520241
 C           -2.86382583       -1.16553760        0.28947179
 C           -2.67919859        0.18112287       -0.04918305
 C           -1.80425752       -3.17313010       -0.59936575
 C           -2.80618003       -2.12398781       -0.71637027
 C            0.14452521       -3.15660737       -2.11756600
 C           -1.25826284       -3.42420075       -1.90896643
 C            0.26425145       -2.41426654       -3.36451417
 C            2.25016011       -1.34257494       -2.42080777
 C            2.54879481        0.07349563       -2.27716140
 C            1.29712554       -1.49706429       -3.50289015
 C            0.97282036        1.89713426       -2.70229783
 C            1.68460550        0.80149821       -3.17401729
 C            1.02849690       -0.17170979       -4.03940263
 C           -0.09149510        2.36943259       -3.47321085
 C           -1.01565444        3.40088285       -1.43319591
 C           -2.17030269        2.83713229       -0.75247004
 C           -1.14730697        3.11961474       -2.83701073
 C           -2.84005387        0.58273442       -1.38373613
 C           -2.80411917        1.93837604       -1.68759139
 C           -2.38202689        2.37126650       -3.00812015
 C           -2.86110819       -1.71689190       -2.10230532
 C           -2.01420596       -2.62696632       -2.85859063
 C           -1.07727304       -2.06891530       -3.81685001
 C           -2.83518812       -0.36591984       -2.41806093
 C           -0.22531897        0.11882966       -4.55834839
 C           -0.73955905        1.47002090       -4.41272233
 C           -2.13858840        1.37118976       -4.02100865
 C           -1.33051738       -0.79435253       -4.30956003
 C           -2.39010766       -0.01415148       -3.69338174
