   70
C70 / DATE: 7/ 1/2024 / Origin: Program Fullerene / C70 from database
 C            1.48931509        0.04255445        4.95230038
 C            0.70067993       -1.14299508        4.67486044
 C            1.55303637       -2.07444256        3.97486613
 C            2.70175500       -0.04149449        4.15325846
 C            2.75939544       -1.36226404        3.57389366
 C            2.71559796        1.09620515        3.26038947
 C            0.73474252        1.19371129        4.48732853
 C            1.59143490        1.95293562        3.60478846
 C           -0.52851070       -0.72205460        4.02896615
 C           -0.52637193        0.72896745        3.95259168
 C           -1.01344622       -1.43018038        2.93406190
 C            1.02638492       -2.71795636        2.79051885
 C           -0.30586892       -2.53315906        2.42564095
 C            2.87643345       -1.48525265        2.13005170
 C            2.02103456       -2.58743912        1.74847448
 C            3.01670317        0.92546080        1.90870225
 C            2.89224345       -0.34606256        1.32382327
 C            2.84916764        2.04737162        1.10967697
 C            1.00483517        2.67166845        2.57063491
 C            1.84261240        3.01489220        1.51564646
 C           -1.00309381        1.33250620        2.79168907
 C           -0.35698200        2.47452739        2.30314470
 C           -1.93297409       -0.78686768        2.11019401
 C           -1.83534839        0.59762811        1.93967384
 C           -2.60753011       -1.55161423        1.17358903
 C           -0.68360499       -3.03876286        1.17813918
 C           -1.97710833       -2.77824084        0.73458360
 C            1.56042069       -2.65072189        0.44705364
 C            0.32916277       -3.25882576        0.23719543
 C            2.49033111       -0.47310498       -0.01664844
 C            1.98511735       -1.69496503       -0.47716544
 C            2.74351289        1.89627791       -0.32408303
 C            2.48237646        0.63939836       -0.85809729
 C            1.28370499        3.60884141        0.31728431
 C            2.00374400        3.04626136       -0.81414926
 C           -0.94011788        3.15769608        1.24048791
 C           -0.09021471        3.78579214        0.23929247
 C           -2.36743688        1.21111448        0.79977965
 C           -2.05604397        2.54404714        0.54301622
 C           -3.19667992       -0.91101011        0.01583121
 C           -3.01530632        0.45069949       -0.17927381
 C           -2.32011349       -2.98556131       -0.66129292
 C           -3.06364082       -1.81750840       -1.11533965
 C            0.00756657       -3.58585773       -1.07089567
 C           -1.37986545       -3.56058749       -1.49874206
 C            1.53519338       -1.81857156       -1.79637684
 C            0.78862373       -2.95754301       -2.11795538
 C            1.90822296        0.54868043       -2.12743080
 C            1.49253537       -0.68790798       -2.62379325
 C            1.37639982        2.94788298       -2.04409057
 C            1.52682292        1.71637949       -2.79295768
 C           -0.75578838        3.67498149       -1.04864798
 C           -2.03927591        3.02837880       -0.82594308
 C           -0.01192395        3.36483066       -2.18292835
 C           -3.17787102        0.95946056       -1.46574174
 C           -2.59710379        2.24173746       -1.82239014
 C           -2.84225565       -1.29647086       -2.39134774
 C           -3.03206761        0.06884416       -2.60735452
 C           -1.39340354       -3.21415243       -2.90795717
 C           -0.01417290       -3.00256026       -3.32122147
 C           -2.15643726       -2.05689494       -3.33901552
 C            0.82448889       -0.72540830       -3.85274756
 C            0.00931667       -1.86693556       -4.20986383
 C           -1.35791331       -1.38776785       -4.35083791
 C            0.43466468        1.67243225       -3.74553132
 C           -0.60578515        2.55558184       -3.23734855
 C           -1.90368565        2.07723375       -3.09101994
 C           -2.24866336        0.76682867       -3.61915532
 C            0.09044765        0.44666893       -4.29054520
 C           -1.31141845        0.06266342       -4.36353990
