   70
C70 / DATE: 7/ 1/2024 / Origin: Program Fullerene / C70 from database
 C            1.29578763       -0.02650399        4.52291351
 C            2.60788413       -0.16835624        3.92183805
 C            2.62929526       -1.42583006        3.19859865
 C            0.48465644       -1.15753352        4.10207287
 C            1.30364957       -2.01434836        3.27128062
 C           -0.75065804       -0.64591600        3.54660211
 C            0.54241313        1.18484454        4.26197903
 C           -0.73914548        0.79999684        3.68246281
 C            1.20632720        2.29404305        3.75398916
 C            3.08218137        0.87008705        3.02281617
 C            2.47043928        2.11502064        3.04287479
 C            3.19193061       -1.17960776        1.88140895
 C            3.37431862        0.25411044        1.73740792
 C            2.66728940       -1.88197195        0.80722063
 C            0.76472837       -2.52338554        2.09669289
 C            1.64334067       -2.79611815        1.05684865
 C           -1.23625019       -1.19687511        2.36823830
 C           -0.57655450       -2.27740517        1.78003096
 C           -2.10063075       -0.43960461        1.59141744
 C           -1.30678028        1.57718787        2.67166848
 C           -2.05996765        0.95779871        1.67169456
 C            0.43197501        3.27813220        3.02442309
 C           -0.84052849        2.87532188        2.45605344
 C            2.38489040        2.86827304        1.80624475
 C            1.25669472        3.77058213        1.93637936
 C            2.95677082        0.87668681        0.55817045
 C            2.59469723        2.22848081        0.58417939
 C            2.74700129       -1.30507810       -0.45703199
 C            2.67662444        0.08713663       -0.56841337
 C            2.44022355       -2.10190650       -1.55252087
 C            1.17244643       -3.56349440        0.00519744
 C            1.76392493       -3.36095540       -1.30314985
 C           -1.08634795       -2.80975720        0.59009985
 C           -0.26562711       -3.64560849       -0.17417784
 C           -2.74500389       -1.04559179        0.51751372
 C           -2.22853668       -2.24575998        0.00682202
 C           -3.61454429       -0.26294193       -0.23894429
 C           -2.46312545        1.71521513        0.57318220
 C           -3.34643801        1.15636920       -0.33546925
 C           -0.91642851        3.44259900        1.11784853
 C            0.39865882        3.96724168        0.78399552
 C           -1.64927028        2.76041657        0.15129794
 C            2.09073530        2.82665720       -0.56613923
 C            0.91803133        3.68851511       -0.46800505
 C            2.17580456        0.67308315       -1.73916427
 C            1.95660151        2.04518222       -1.77996589
 C            1.83289441       -1.49930476       -2.72240729
 C            1.64989429       -0.12481524       -2.76016850
 C            0.71767573       -3.52197351       -2.29544483
 C           -0.51865949       -3.81741195       -1.59674367
 C            0.75724829       -2.37118221       -3.17806728
 C           -2.66881028       -2.74357813       -1.22213198
 C           -1.70036288       -3.32940116       -2.12560502
 C           -4.05589262       -0.70317625       -1.54546724
 C           -3.57140633       -1.96549959       -2.04839571
 C           -3.15797793        1.45608352       -1.74152641
 C           -3.68746768        0.33281598       -2.49872458
 C           -1.26237646        2.81867956       -1.19316947
 C            0.00815503        3.28813762       -1.52181542
 C            0.79721164        2.55667661       -2.49054817
 C           -1.96702712        2.06179154       -2.13433938
 C            0.66193990        0.38618964       -3.59949607
 C            0.13799979        1.72195953       -3.37365439
 C           -1.30830420        1.60670329       -3.28054942
 C           -0.44390651       -1.80812565       -3.60399125
 C           -1.64214139       -2.45274220       -3.28713942
 C           -2.89315968       -1.71348292       -3.31262183
 C           -2.86566493       -0.27911546       -3.52493335
 C           -0.45311331       -0.46635551       -3.98436211
 C           -1.67023279        0.32869555       -3.87717955
