   70
C70 / DATE: 7/ 1/2024 / Origin: Program Fullerene / C70 from database
 C            1.69143742       -0.27764222        4.96446712
 C            0.84210400       -1.45572781        4.99415643
 C            1.27178179       -2.34151559        3.92747326
 C            2.63733529       -0.44002184        3.87698245
 C            2.40412514       -1.73443937        3.25951920
 C            2.55831372        0.74018951        3.02978643
 C            0.85748840        0.86478061        4.64070552
 C            1.44477669        1.54609801        3.49656793
 C           -0.51355440       -1.03591723        4.68713878
 C           -0.51507309        0.40552080        4.52568443
 C            0.11120650       -2.66734884        3.12415922
 C           -0.99676913       -1.84380144        3.57969242
 C            0.27742137       -2.82127905        1.75667258
 C            2.45778373       -1.79914133        1.87299351
 C            1.53583076       -2.59540153        1.18662506
 C            2.71508709        0.56451030        1.66138184
 C            3.00794055       -0.71678909        1.19984095
 C            2.10400773        1.46603147        0.78555854
 C            0.58201176        2.09589615        2.55349337
 C            1.00431568        2.20970044        1.22417637
 C           -1.28359312        0.93837006        3.50136832
 C           -0.78454714        2.04536205        2.81811752
 C           -1.80692162       -1.23159474        2.62289782
 C           -2.17290631        0.09836968        2.82946799
 C           -0.84484100       -2.67995580        0.95432080
 C           -1.81525383       -1.74013939        1.31759860
 C           -0.74214513       -3.09069124       -0.36327416
 C            1.67315351       -2.71735916       -0.20244031
 C            0.58506582       -3.16775884       -0.94864826
 C            3.29039684       -0.87615999       -0.14223550
 C            2.68311056       -1.99713832       -0.83957927
 C            2.35747905        1.33735485       -0.58137481
 C            3.15639023        0.27728596       -1.00504822
 C            1.55561515        2.00518479       -1.51021911
 C            0.14524592        2.79541145        0.29059459
 C            0.43051475        2.71170183       -1.07527176
 C           -1.64550060        2.71962794        1.96870275
 C           -1.12436445        3.20666213        0.70449991
 C           -3.06963634        0.68382442        1.94731046
 C           -2.93298933        2.10672223        1.69815996
 C           -2.56103752       -1.08427450        0.32777372
 C           -3.30679672        0.03763352        0.66754465
 C           -1.62626072       -2.51386742       -1.35227206
 C           -2.34121936       -1.37009742       -1.02118072
 C            0.46416726       -2.81959844       -2.35804788
 C           -0.95024612       -2.59929678       -2.63128979
 C            2.53920612       -1.60541628       -2.23537560
 C            3.01815679       -0.23301581       -2.35215866
 C            1.42343369       -2.01025814       -2.96548077
 C            1.75475521        1.78165908       -2.87814957
 C            2.46677880        0.59096651       -3.31530538
 C            0.66833273        2.01176336       -3.81622683
 C           -0.54955291        3.08479301       -1.99613573
 C           -0.52305417        2.53291387       -3.33782075
 C           -2.22793544        3.20867397       -0.24249345
 C           -3.26248879        2.35446285        0.30947101
 C           -3.51137396        1.07363430       -0.32934528
 C           -1.93826224        3.07720410       -1.58739372
 C           -2.60125684       -0.39914416       -1.99870793
 C           -1.77098308        1.79443852       -3.52384879
 C           -3.02572940        0.87634544       -1.61696796
 C           -2.55981463        1.98773524       -2.32106539
 C           -1.31774129       -1.72677783       -3.64039517
 C           -2.18439467       -0.60480712       -3.31639214
 C           -1.75094201        0.53551351       -4.10806493
 C            1.09725779       -1.32542603       -4.13571128
 C            1.69455506       -0.02300044       -4.37759057
 C            0.63458183        0.89734513       -4.74814522
 C           -0.29310535       -1.25124950       -4.55025825
 C           -0.59087400        0.13236555       -4.88098832
