   70
C70 / DATE: 7/ 1/2024 / Origin: Program Fullerene / C70 from database
 C            1.35906308       -0.03936925        4.91443854
 C            0.57236728       -1.21916749        4.59563316
 C            1.42753237       -2.12890532        3.87547412
 C            2.59177968       -0.11322619        4.14876424
 C            2.67232372       -1.43226156        3.57169374
 C            2.62426767        1.02435270        3.25571784
 C            0.62015070        1.12261116        4.45083510
 C            1.45189340        1.84537764        3.51983920
 C           -0.65283969       -0.77843974        3.95804889
 C           -0.66385822        0.67274650        3.97971209
 C           -1.12402328       -1.41832081        2.80638139
 C            0.93868110       -2.69093658        2.63438191
 C           -0.35735087       -2.41856931        2.18624419
 C            2.89832178       -1.55066307        2.14185759
 C            2.02030444       -2.60006914        1.67563590
 C            3.02604339        0.86723225        1.93043653
 C            3.04455565       -0.41259044        1.34735669
 C            2.83221087        1.97035748        1.11075191
 C            0.85385883        2.48678410        2.43721171
 C            1.69645435        2.83455755        1.39108950
 C           -1.23239066        1.30986517        2.89108534
 C           -0.50675542        2.26734234        2.16260709
 C           -2.09518233       -0.75057629        2.05324342
 C           -2.24429702        0.62970617        2.23932567
 C           -2.60066606       -1.35787122        0.90183533
 C           -0.65361580       -2.77068932        0.86630836
 C           -1.88540746       -2.40321501        0.31923097
 C            1.67367834       -2.62184709        0.33930800
 C            0.41229784       -3.09363000        0.01790433
 C            2.85833643       -0.55058190       -0.03649132
 C            2.28137137       -1.72822799       -0.54098025
 C            2.93384282        1.82531021       -0.32385747
 C            3.03719432        0.55626912       -0.87044397
 C            1.13538792        3.25628188        0.12679499
 C            2.01427816        2.77503425       -0.92805849
 C           -1.06840771        2.76093726        0.96985656
 C           -0.23703949        3.21352944       -0.06426309
 C           -3.03660538        1.36591314        1.38006339
 C           -2.41559002        2.48884803        0.70459216
 C           -3.61026906       -0.72473816        0.17701060
 C           -3.88424214        0.67217643        0.43864536
 C           -3.68097969       -0.90608645       -1.26164360
 C           -2.21949000       -2.83405373       -0.96459337
 C           -3.00522566       -1.96930012       -1.82812883
 C            0.17402101       -3.40090583       -1.31000327
 C           -1.19008545       -3.43475976       -1.78854582
 C            1.97871808       -1.83814379       -1.90309354
 C            0.99449771       -2.74581169       -2.31500728
 C            2.82899444        0.42992658       -2.23799688
 C            2.39706458       -0.84262197       -2.77765222
 C            1.48501193        2.48481001       -2.18189917
 C            2.09189482        1.47825975       -2.93117826
 C           -0.70732293        3.27153641       -1.37371300
 C            0.17033282        2.86519342       -2.46348186
 C           -2.91628197        2.51009692       -0.66086084
 C           -3.81941278        1.38483625       -0.82585458
 C           -3.54426006        0.40789613       -1.86548967
 C           -2.04765638        2.81915262       -1.69202125
 C           -0.63339618        2.10991199       -3.41851899
 C           -2.50726373        0.64520560       -2.76698391
 C           -1.94852764        1.92235334       -2.83472818
 C           -2.22358767       -1.73821673       -3.03016787
 C           -1.22266498       -2.78652819       -3.08938155
 C            0.13581701       -2.42918768       -3.44992983
 C           -1.86452035       -0.43622757       -3.38035635
 C            1.61406495       -0.56854489       -3.97088753
 C            1.37109787        0.86250890       -4.02918037
 C           -0.05894926        1.07268595       -4.13346298
 C            0.34397519       -1.24503451       -4.13911753
 C           -0.70352062       -0.23028787       -4.13134269
