   70
C70 / DATE: 7/ 1/2024 / Origin: Program Fullerene / C70 from database
 C            1.50714819       -0.12461876        4.88063061
 C            0.69776447       -1.31930721        4.75482043
 C            1.37960843       -2.22708561        3.84600567
 C            2.60834145       -0.24131513        3.94005793
 C            2.43998140       -1.47234051        3.19874340
 C            2.66351877        0.99122076        3.18700519
 C            0.69130845        1.00150673        4.45869026
 C            1.46188471        1.75446894        3.49993181
 C           -0.65726058       -0.90388852        4.43223191
 C           -0.59489699        0.49445369        4.03580840
 C           -1.44091339       -1.77127481        3.68864970
 C            0.60469412       -3.08218596        3.07860063
 C           -0.84055135       -3.01049956        3.21853573
 C            0.89453963       -3.21704054        1.65922878
 C            2.49447852       -1.41208286        1.80786829
 C            1.77403646       -2.33596292        1.04098587
 C            3.06126911        0.94775006        1.85375005
 C            3.06201585       -0.28932757        1.19135848
 C            2.81878792        2.10114164        1.11490172
 C            0.80596338        2.36995647        2.44108657
 C            1.62987932        2.86562981        1.44390313
 C           -1.08666063        0.87713784        2.78737961
 C           -0.48478604        1.93811766        2.08787746
 C           -2.23671224       -1.23826094        2.59561750
 C           -2.01710994        0.06018970        2.14051087
 C           -1.42489738       -3.32508193        1.93002133
 C           -0.34572348       -3.54177518        0.98240203
 C           -2.39960485       -2.29602862        1.61616945
 C           -0.53845731       -3.08272298       -0.31462566
 C            1.70385937       -2.17999912       -0.34387567
 C            0.54351550       -2.55836594       -1.03042022
 C            3.28998507       -0.33161179       -0.18237630
 C            2.63458565       -1.36408350       -0.96529740
 C            2.95757411        2.08681325       -0.32916055
 C            3.26175144        0.89763872       -0.96031929
 C            1.04531894        3.33148733        0.21339629
 C            1.91769173        2.93775225       -0.88109683
 C           -1.04560123        2.35625784        0.86945372
 C           -0.32246735        3.22389739        0.03378854
 C           -2.44188076        0.39667122        0.85900211
 C           -2.15561349        1.66351542        0.36745441
 C           -2.53727224       -1.93516843        0.28438858
 C           -1.81870662       -2.66151900       -0.65782307
 C           -2.85186649       -0.61315856       -0.02043085
 C           -2.07813093       -2.41306789       -1.99167434
 C            0.32174944       -2.12845360       -2.34853195
 C           -0.94730304       -2.34551745       -2.89393727
 C            2.34379707       -0.81747948       -2.27392589
 C            2.64823104        0.60411646       -2.24062844
 C            1.21373246       -1.23393136       -2.96412704
 C            1.33378431        2.63719976       -2.11118826
 C            1.74727742        1.49891005       -2.82039693
 C           -0.79143163        3.50037129       -1.24338619
 C            0.08351203        3.20306604       -2.36893749
 C           -2.75657009        2.06172770       -0.81992494
 C           -2.13123491        3.10267437       -1.60167065
 C           -3.13379923       -0.30027669       -1.35304567
 C           -2.93313728       -1.28692263       -2.31907282
 C           -3.22831201        1.03726225       -1.73568891
 C           -1.39243024       -1.60077223       -4.05637640
 C           -2.62270382       -0.91308595       -3.68690954
 C            0.78311788       -0.41053356       -4.00516720
 C            0.98233808        1.02506889       -3.88524496
 C           -0.49819602       -0.63189782       -4.63939552
 C           -0.73845364        2.71352973       -3.45852537
 C           -2.11612954        2.68212841       -2.99220338
 C           -2.86906419        1.44499608       -3.09041351
 C           -2.47082167        0.48918845       -4.01622035
 C           -0.26638779        1.67565312       -4.24517217
 C           -1.19195332        0.64514529       -4.69306546
