   70
C70 / DATE: 7/ 1/2024 / Origin: Program Fullerene / C70 from database
 C            1.25848707        0.06337710        4.74548388
 C            2.50299477       -0.08009248        4.02016595
 C            2.50945123       -1.39883729        3.41245997
 C            0.42799781       -1.09264766        4.43965037
 C            1.18513570       -1.97029687        3.57078848
 C           -0.85749859       -0.61117857        3.97818927
 C            0.46240746        1.25137294        4.52276095
 C           -0.88484586        0.82538990        4.17860003
 C            0.88147098        2.21284470        3.51655602
 C            2.83716372        0.88055991        2.98212404
 C            2.06353748        2.02685166        2.79207026
 C            3.03973437       -1.27060519        2.06447889
 C            3.29319473        0.13653039        1.81600663
 C            2.45890133       -2.01815382        1.05277757
 C            0.57281289       -2.49890862        2.44085967
 C            1.38787290       -2.85352479        1.37458538
 C           -1.37934300       -1.11828392        2.79453663
 C           -0.77357325       -2.22075062        2.18167190
 C           -2.22224869       -0.30713638        2.04177155
 C           -1.35162202        1.66529435        3.08685676
 C           -0.31930330        2.64651983        2.81729094
 C           -1.99458961        1.06863993        2.00843444
 C           -0.19734374        3.14261201        1.52738105
 C            2.20927409        2.71337762        1.59137763
 C            1.07747496        3.45552188        1.06893173
 C            3.05355486        0.66524318        0.54780879
 C            2.82091247        2.02993496        0.46044150
 C            2.57923382       -1.55700422       -0.25501102
 C            2.62184045       -0.17927763       -0.48558435
 C            2.22767456       -2.41855002       -1.28318170
 C            0.83490513       -3.63525777        0.37514634
 C            1.44100006       -3.58830534       -0.94092238
 C           -1.36440257       -2.76610030        1.03326840
 C           -0.60786926       -3.59595120        0.20457975
 C           -2.94696428       -0.88900635        1.01826066
 C           -2.53268354       -2.19400236        0.53207334
 C           -3.30306228       -0.07951088       -0.13039902
 C           -2.01377791        1.73599518        0.78008966
 C           -1.19656343        2.85759662        0.59379556
 C           -2.69330190        1.16097643       -0.30126828
 C           -1.11161664        3.44515287       -0.66407861
 C            1.29705776        3.61252671       -0.35477968
 C            2.25210177        2.58467781       -0.74929205
 C            0.19880308        3.83417116       -1.16783393
 C            2.03153358        0.35700416       -1.64516555
 C            1.94329915        1.74406845       -1.81410193
 C            1.69345467       -1.87256304       -2.51496953
 C            1.51338621       -0.49670512       -2.63063929
 C            0.38390706       -3.72203173       -1.92190386
 C           -0.88799463       -3.64464245       -1.22421075
 C            0.64743891       -2.77138712       -2.98249610
 C           -2.80882664       -2.23924132       -0.89708264
 C           -3.44061940       -0.97606026       -1.26101920
 C           -1.89616784       -2.84759826       -1.75870284
 C           -3.27959280       -0.46985163       -2.53923608
 C           -2.58067823        1.70453104       -1.58499026
 C           -1.86650729        2.88432638       -1.76905185
 C           -2.86497568        0.91468818       -2.70497805
 C            0.28398448        3.38454007       -2.54141352
 C            1.15588445        2.26196303       -2.83897246
 C           -1.05375678        3.02462059       -2.96333807
 C            0.61458307       -0.00884656       -3.58503023
 C           -1.98928230        0.98153251       -3.86894959
 C            0.42018932        1.36282643       -3.70524426
 C           -0.93759162        1.88346627       -3.84568043
 C           -0.43761706       -2.22881376       -3.64786131
 C           -1.76706428       -2.38842276       -3.07066673
 C           -2.57232350       -1.26672946       -3.52198494
 C           -0.34535514       -0.86391529       -4.12523203
 C           -1.70369334       -0.37854324       -4.27600144
