   70
C70 / DATE: 7/ 1/2024 / Origin: Program Fullerene / C70 from database
 C            1.23622902       -0.04945891        4.40202772
 C            2.47699845       -0.31180907        3.71138273
 C            2.40522001       -1.65894066        3.16997571
 C            0.39279094       -1.22893824        4.26083155
 C            1.03837128       -2.11487867        3.32022354
 C           -0.94535770       -0.76511040        3.96699559
 C            0.43921921        1.08907198        3.99020057
 C           -0.93824309        0.67653442        4.16198994
 C            0.78948431        1.80688231        2.84385432
 C            2.86321119        0.56449291        2.62650283
 C            2.06690508        1.65620099        2.28140761
 C            2.97265776       -1.62897970        1.83180408
 C            3.40211380       -0.26967219        1.56456294
 C            2.32868399       -2.31919524        0.81484257
 C            0.35865571       -2.51357824        2.17692973
 C            1.11157135       -2.95111341        1.09209913
 C           -1.63566025       -1.29425071        2.87698935
 C           -0.97300811       -2.12749046        1.96363686
 C           -2.80603671       -0.64995341        2.48110882
 C           -1.92850614        1.42411296        3.55187389
 C           -3.03448813        0.70945907        2.94149757
 C           -0.20993648        2.51397177        2.15834704
 C           -1.52876855        2.46598401        2.61979433
 C            0.06771007        3.13266873        0.93542314
 C            2.36809477        2.29913798        1.08834149
 C            1.35415529        3.08600930        0.41720313
 C            3.34932867        0.20660642        0.25767919
 C            3.10769593        1.56720059        0.07079320
 C            2.63367446       -1.97939579       -0.50180411
 C            3.08998022       -0.68653833       -0.78865951
 C            2.17375442       -2.80569286       -1.52332093
 C            0.44785626       -3.61322580        0.07139952
 C            1.09092214       -3.72007117       -1.22383978
 C           -1.56451382       -2.39329720        0.72248921
 C           -0.94959890       -3.28802950       -0.14511823
 C           -3.23210104       -0.72383588        1.09317748
 C           -2.50276234       -1.50390051        0.20823878
 C           -3.49894043        1.49433702        1.81371126
 C           -2.62364617        2.64439908        1.68157876
 C           -3.65005116        0.60172388        0.67801561
 C           -0.97515677        3.47438317        0.07672081
 C           -2.34013863        3.10450565        0.40738323
 C           -0.80493510        3.28324814       -1.35782809
 C            1.53640749        2.92394879       -1.01905532
 C            2.68554798        2.06069036       -1.22859210
 C            0.41510817        2.81005493       -1.83888243
 C            3.02324195       -0.19779166       -2.09319520
 C            2.69656762        1.20045547       -2.31205798
 C            1.93469378       -2.26012029       -2.84776128
 C            2.36155272       -0.97080334       -3.13122060
 C            0.06993424       -3.55115048       -2.24089240
 C           -1.15340809       -3.13433394       -1.57531384
 C            0.61747190       -2.70435848       -3.28561391
 C           -2.45267477       -1.15050861       -1.14492068
 C           -1.83156944       -2.01686834       -2.05580773
 C           -3.27456451        1.04943614       -0.58106969
 C           -2.86727383        2.37654156       -0.73527038
 C           -2.05108949        2.74484946       -1.87983493
 C           -2.91115273        0.11419524       -1.54883247
 C           -2.00760691        1.88691679       -2.96405435
 C           -2.63053523        0.58400790       -2.82758348
 C            0.44630305        1.97232389       -2.96072085
 C            1.60229405        1.25102318       -3.26430949
 C            1.49895708       -0.06626851       -3.87719292
 C           -0.73840197        1.67074654       -3.63068503
 C           -0.23522013       -1.80743296       -3.91506585
 C           -1.56194448       -1.59499319       -3.35663317
 C           -2.00764712       -0.29240262       -3.79311125
 C            0.26725333       -0.51093390       -4.34036419
 C           -0.85567951        0.40920205       -4.34242103
