   70
C70 / DATE: 7/ 1/2024 / Origin: Program Fullerene / C70 from database
 C            1.62709228        0.05748303        4.53049472
 C            0.80346162       -1.13423534        4.45347951
 C            1.41986078       -2.03350657        3.49921020
 C            2.62987695       -0.02455781        3.47878309
 C            2.53134094       -1.32709300        2.87629585
 C            2.47744883        1.12564344        2.62152455
 C            0.77779517        1.19487769        4.23624276
 C            1.41013455        1.93947025        3.17432696
 C           -0.56653991       -0.72238620        4.22633142
 C           -0.57063158        0.71717702        4.00993878
 C           -1.36524344       -1.52056646        3.42383488
 C            0.61350362       -2.82994320        2.68863451
 C           -0.77386584       -2.64289641        2.70216816
 C            1.20450013       -3.37865768        1.55490807
 C            2.69610192       -1.45678928        1.50350788
 C            2.35161121       -2.69153864        0.98145971
 C            2.52708178        0.96646006        1.23256597
 C            2.61360530       -0.32119076        0.67370183
 C            2.02978318        2.01428558        0.45257175
 C            0.60789265        2.59815993        2.26645398
 C            1.20354347        2.95918392        1.07611165
 C           -1.28903381        1.24838474        2.93801824
 C           -0.77031822        2.35638543        2.24931998
 C           -2.32836088       -0.88997468        2.54019440
 C           -2.31155002        0.49024494        2.36117047
 C           -1.54583416       -2.83072852        1.47814953
 C           -2.50279895       -1.74682638        1.37745791
 C            0.37189636       -3.79880806        0.44481918
 C           -0.91087748       -3.27723252        0.33068237
 C            2.30402058       -2.87266134       -0.44810212
 C            1.23143362       -3.81829164       -0.72200368
 C            2.44603206       -0.48346123       -0.71449578
 C            2.46148839       -1.76877187       -1.27713381
 C            2.03129685        1.89432538       -0.93977117
 C            2.15018301        0.62751424       -1.51920499
 C            1.55183043        2.95099141       -1.72003330
 C            0.53693175        3.90399746        0.32392118
 C            0.89619536        4.06273412       -1.06270963
 C           -1.52825485        2.96502034        1.24012185
 C           -0.91156098        3.92516601        0.43120244
 C           -3.00820293        1.00458375        1.27681516
 C           -2.67435397        2.32240815        0.77210705
 C           -2.75208928       -1.15836383        0.14092258
 C           -3.26206368        0.13824566        0.13268929
 C           -1.35750836       -2.83914029       -0.91684885
 C           -2.13193450       -1.66866532       -1.00887321
 C            0.64197890       -3.78662413       -1.97238538
 C           -0.75147667       -3.37227983       -2.05335873
 C            2.17274221       -1.93963344       -2.62817662
 C            1.35122444       -3.07712350       -3.01634964
 C            1.66837148        0.44376706       -2.81933425
 C            1.74859710       -0.80310504       -3.41763186
 C            0.78887659        2.64643309       -2.91795971
 C            0.70023088        1.31933012       -3.29817878
 C           -0.31667296        4.38187609       -1.79425465
 C           -1.44120209        4.18640444       -0.89499430
 C           -0.43999162        3.41772048       -2.86787870
 C           -2.98879545        2.32658713       -0.65146066
 C           -3.15015844        0.94464618       -1.06561818
 C           -2.32883734        3.20774155       -1.49059566
 C           -1.68320733        2.69119513       -2.68764319
 C           -2.15582458       -0.91697005       -2.19688024
 C           -0.55962671        0.80352128       -3.60752750
 C           -2.41724334        0.45163493       -2.13549255
 C           -1.66197606        1.32019047       -2.93082368
 C           -0.93862983       -2.71784490       -3.32929129
 C            0.36204726       -2.62351125       -3.97228997
 C            0.61895921       -1.22163736       -4.22885299
 C           -1.53386785       -1.39993471       -3.34364372
 C           -0.63043774       -0.50883923       -4.05033908
