   70
C70 / DATE: 7/ 1/2024 / Origin: Program Fullerene / C70 from database
 C            1.28692280       -0.18021423        4.46792376
 C            2.53671446       -0.41359207        3.77106671
 C            2.42203957       -1.68184399        3.06945251
 C            0.42957707       -1.33232783        4.23832144
 C            1.07376444       -2.18372089        3.26602335
 C           -0.89717759       -0.84724669        3.93662239
 C            0.52008358        1.01509411        4.16056988
 C           -0.84445889        0.60549738        3.87250384
 C            1.09533626        2.02621723        3.40406226
 C            3.00847361        0.57828476        2.82152083
 C            2.39001319        1.81864818        2.76119682
 C            2.89198097       -1.48586566        1.70883149
 C            3.32915315       -0.10733070        1.58226095
 C            2.16680663       -2.04974786        0.66326958
 C            0.35279059       -2.58292354        2.14699723
 C            1.05020065       -2.82736787        0.96757431
 C           -1.66400444       -1.50657122        2.98506423
 C           -1.03762477       -2.39911937        2.09538266
 C           -2.80618476       -0.83640373        2.57351010
 C           -1.58371356        1.25378645        2.87908029
 C           -2.72495081        0.60561673        2.40847943
 C            0.26189688        2.75694474        2.46866204
 C           -0.96070435        2.21549605        2.07182295
 C            2.36394843        2.52781857        1.49411702
 C            1.15187702        3.32391949        1.47215801
 C            3.12933089        0.53213914        0.36373169
 C            2.76616775        1.88388968        0.32463095
 C            2.28089943       -1.49323401       -0.61393057
 C            2.91714618       -0.25823487       -0.76235179
 C            1.52543885       -2.02542311       -1.66395859
 C            0.39947783       -3.48743040       -0.05820067
 C            0.75027897       -3.15487414       -1.42670331
 C           -1.74219557       -2.91091514        0.99266208
 C           -1.04428947       -3.61685996        0.01249843
 C           -3.58748498       -1.36890636        1.48441207
 C           -3.01666570       -2.42945861        0.68603193
 C           -3.21533834        0.90808384        1.07827266
 C           -3.90499109       -0.26596652        0.58937585
 C           -1.42261866        2.44666570        0.76983392
 C           -2.39305645        1.61737279        0.21929148
 C            0.63065424        3.68587484        0.24378079
 C           -0.74455693        3.32880856       -0.06165844
 C            2.42857995        2.45776583       -0.90442880
 C            1.41194770        3.41538120       -0.95014568
 C            2.96317734        0.34670370       -2.00893748
 C            2.78007016        1.78479654       -2.07217444
 C            1.33822317       -1.28534666       -2.83791158
 C            2.22651052       -0.24584607       -3.10924415
 C            0.12948163       -1.38189261       -3.55128695
 C           -0.42103498       -3.37572517       -2.24180936
 C           -1.54494092       -3.62433239       -1.35222728
 C           -0.80550216       -2.33768469       -3.17173009
 C           -3.36064192       -2.13430337       -0.69629592
 C           -3.64203025       -0.71130899       -0.76268774
 C           -2.61457880       -2.71156807       -1.71145106
 C           -2.13100936       -1.87086506       -2.79585889
 C           -2.34533253        1.29701117       -1.14425325
 C           -2.87768033        0.08406695       -1.61085225
 C           -2.36683848       -0.49497968       -2.77345804
 C           -0.84418782        3.15453708       -1.50101484
 C            0.47426704        3.42341988       -2.06038670
 C           -1.61658410        2.11292925       -2.01530620
 C            2.08743466        2.08919043       -3.31333919
 C            1.83633606        0.83266447       -4.00001650
 C            0.83961016        2.82953724       -3.25855681
 C           -0.38897568       -0.24742205       -4.16697583
 C           -1.63422356        0.29319794       -3.65214959
 C           -1.38524477        1.68082938       -3.31694123
 C            0.47896211        0.86267736       -4.49234628
 C           -0.15675192        2.07198691       -3.99240642
