   70
C70 / DATE: 7/ 1/2024 / Origin: Program Fullerene / C70 from database
 C            1.27002592        0.01537304        4.37967231
 C            2.54380828       -0.28229700        3.76959187
 C            2.51123469       -1.67092373        3.34623144
 C            0.42926707       -1.16877443        4.25293835
 C            1.12966693       -2.11297096        3.41466682
 C           -0.88084471       -0.71839494        3.84287358
 C            0.49988032        1.13229158        3.87042008
 C           -0.88614726        0.72491476        3.98101318
 C            0.91411307        1.80081928        2.71424553
 C            2.96546680        0.50434478        2.63062764
 C            2.20109229        1.58592517        2.19454573
 C            3.19955599       -1.76279130        2.07153244
 C            3.51014158       -0.40900296        1.63780099
 C            2.71474637       -2.65786292        1.13720314
 C            0.52531268       -2.58903289        2.25331434
 C            1.35229417       -3.15571781        1.28567308
 C           -1.48260924       -1.27507020        2.71882767
 C           -0.75900363       -2.15043529        1.88965345
 C           -2.62076307       -0.64241695        2.21994881
 C           -1.83308497        1.43733940        3.27092458
 C           -2.84764945        0.69860313        2.53914608
 C           -0.04264259        2.50781778        1.97049886
 C           -1.37652135        2.49138712        2.38407431
 C            0.29106931        3.07737699        0.73792801
 C            2.53755873        2.12891558        0.96187732
 C            1.58195007        2.95075217        0.24980815
 C            3.40933591       -0.06010750        0.28875531
 C            3.21179076        1.28154830       -0.01110376
 C            2.89622634       -2.35584702       -0.26536830
 C            3.08431718       -1.03203848       -0.66641727
 C            0.83764513       -3.40172894       -0.04799348
 C            1.93585685       -3.17689009       -0.97324631
 C           -1.28680120       -2.51997705        0.64361793
 C           -0.43221545       -2.94459841       -0.37512633
 C           -3.29478548       -1.21148669        1.14877081
 C           -2.59023440       -2.16303663        0.31294984
 C           -4.10066006       -0.36548750        0.28388654
 C           -3.37368944        1.60398419        1.52951256
 C           -2.43549104        2.71214384        1.41422470
 C           -3.97024695        1.07572038        0.39218357
 C           -0.71040450        3.47399567       -0.14473860
 C           -2.10568107        3.21168629        0.16491603
 C           -0.52471204        3.26812224       -1.57275646
 C            1.78989275        2.74373388       -1.17615250
 C            2.75617281        1.66493980       -1.32977105
 C            0.70763051        2.82428217       -2.05295813
 C            2.70340614       -0.66056178       -1.96516265
 C            2.53350222        0.69408740       -2.29489529
 C            1.64197793       -2.84760478       -2.28123393
 C            2.26331935       -1.66201267       -2.83756211
 C           -0.73065125       -2.63729571       -1.70652348
 C            0.24919762       -2.79688579       -2.68326932
 C           -2.89520845       -1.85233207       -1.07330342
 C           -3.82413143       -0.73932109       -1.09153933
 C           -1.85741439       -1.86944512       -1.99466936
 C           -3.60877190        1.58974207       -0.92053155
 C           -2.73383911        2.66225710       -1.02693688
 C           -1.74379642        2.66613376       -2.08980878
 C           -3.44872588        0.45818699       -1.81870377
 C           -1.76469135       -0.84021039       -2.93679467
 C           -1.63782211        1.57963758       -2.95002954
 C           -2.34231343        0.40425017       -2.66175117
 C            0.73925538        2.07676166       -3.23080767
 C            1.77168471        1.06765839       -3.40017589
 C           -0.50071188        1.51324412       -3.74559416
 C            1.48941087       -1.32276134       -4.01504413
 C            0.19187496       -1.97034232       -3.87545150
 C           -0.82690551       -0.94069342       -3.95791815
 C            1.25816019        0.06922775       -4.31383022
 C           -0.17867088        0.26915163       -4.41668588
