   70
C70 / DATE: 7/ 1/2024 / Origin: Program Fullerene / C70 from database
 C            1.62335329        0.07216895        4.90022105
 C            0.81468521       -1.12213875        4.71755429
 C            1.43540885       -1.91935992        3.67232669
 C            2.68535559        0.03320850        3.91488415
 C            2.72428014       -1.31001587        3.37541648
 C            2.49412108        1.13375688        2.98188600
 C            0.78736115        1.21379799        4.59253168
 C            1.31394609        1.86216147        3.39866503
 C           -0.56414486       -0.70255631        4.55019319
 C           -0.58918655        0.75566483        4.57393236
 C           -1.35965097       -1.38853351        3.63879677
 C            0.64954379       -2.40972314        2.62410914
 C           -0.74007264       -2.32029334        2.70658526
 C            1.24712763       -2.69422531        1.39191262
 C            3.23164422       -1.46029615        2.09978777
 C            2.60515349       -2.42761392        1.22854464
 C            2.70154310        0.88697411        1.62850862
 C            3.40168590       -0.26564223        1.28581824
 C            1.86118645        1.47678211        0.67628229
 C            0.41270383        2.30355533        2.43778295
 C            0.74110553        2.21618916        1.07974096
 C           -1.47116897        1.43104203        3.74522548
 C           -0.92481944        2.39096309        2.79927048
 C           -2.41080748       -0.68280199        2.92360971
 C           -2.50992911        0.69388339        3.04348999
 C           -1.52684355       -2.31368223        1.48552723
 C           -2.54909502       -1.29065276        1.60804238
 C            0.45089030       -2.87883568        0.25439868
 C           -0.88173882       -2.46992973        0.26987102
 C            1.06605994       -3.11145281       -0.97364450
 C            3.10718987       -2.12636770       -0.09476002
 C            3.41119795       -0.70499286       -0.09378795
 C            2.42536284       -2.63702381       -1.18229248
 C            2.04451224        1.18735262       -0.68026154
 C            2.82510674        0.09032815       -1.06758848
 C            1.28894385        1.86403430       -1.63961201
 C           -0.17610516        2.66635287        0.11688151
 C            0.16015302        2.58912939       -1.24482022
 C           -1.91193650        2.56875736        1.76748120
 C           -2.86106882        1.47317961        1.87294926
 C           -1.50592246        2.92663112        0.49418272
 C           -2.84723384       -0.49672726        0.50001548
 C           -3.23414367        0.83535143        0.69305754
 C           -1.45195560       -1.92230842       -0.88048403
 C           -2.42702651       -0.91971713       -0.76858204
 C            0.32690322       -2.85374446       -2.20097880
 C           -0.93826408       -2.27644984       -2.12894289
 C            2.40609156       -1.85351382       -2.40307182
 C            2.62214742       -0.47741093       -2.32272617
 C            1.28408469       -2.34950298       -3.17516485
 C            1.49850319        1.57538495       -2.99138718
 C            2.15876513        0.33311100       -3.34763175
 C            0.44091752        1.80852877       -3.96210680
 C           -0.76340803        3.00065148       -2.20953519
 C           -0.73102483        2.41253950       -3.53537396
 C           -2.49721074        2.83453996       -0.46854053
 C           -3.35294194        1.65894052       -0.42112333
 C           -2.15584400        3.08670942       -1.84346924
 C           -2.84675667       -0.21659248       -1.90157144
 C           -2.00969532        1.73440135       -3.74182909
 C           -3.33677696        1.07430747       -1.74386336
 C           -2.87543981        2.11436477       -2.64634288
 C           -1.48289964       -1.72070062       -3.28051298
 C           -2.40824223       -0.61183398       -3.16369661
 C           -2.01529648        0.40349089       -4.13588505
 C            0.82330754       -1.58636317       -4.23658676
 C            1.41588127       -0.27450194       -4.44045895
 C            0.36179992        0.64358105       -4.82934562
 C           -0.61114197       -1.45269491       -4.41379276
 C           -0.88023086       -0.10361584       -4.87971158
