   70
C70 / DATE: 7/ 1/2024 / Origin: Program Fullerene / C70 from database
 C            1.64688894       -0.00305676        5.02358484
 C            0.84715238       -1.21103961        4.95425651
 C            1.71629036       -2.24586812        4.44238693
 C            2.77305654       -0.17824934        4.12044875
 C            2.85796300       -1.58515196        3.81558878
 C            2.60870164        0.76160400        3.02627494
 C            0.84016841        1.07636833        4.49667264
 C            1.59133795        1.71183432        3.42916595
 C           -0.37867520       -0.89557962        4.22784277
 C           -0.46963644        0.54723029        4.15516603
 C           -0.74671728       -1.65359847        3.11484222
 C            1.16962424       -3.16543292        3.47142407
 C           -0.13794029       -2.88767974        2.89797074
 C            2.87981832       -1.99245138        2.42540683
 C            2.10258775       -3.20648652        2.36022784
 C            2.60496630        0.31779210        1.70231868
 C            2.70731502       -1.05114935        1.40627446
 C            2.10585505        1.18678524        0.72705141
 C            0.84761363        2.31563265        2.42829099
 C            1.33874068        2.28806666        1.12267677
 C           -1.09492118        1.12261345        3.06126958
 C           -0.53244823        2.29676945        2.58298824
 C           -1.46743339       -1.05016599        2.07201510
 C           -1.77509473        0.31419754        2.14361500
 C           -1.70159497       -1.75587704        0.88208975
 C           -0.07984258       -3.40009074        1.55164478
 C            1.31812113       -3.42516054        1.16981756
 C           -0.95468292       -2.90673314        0.60140808
 C            2.31165911       -1.50326504        0.14110030
 C            1.64703219       -2.72968015        0.01586628
 C            2.07123660        0.77419752       -0.60089012
 C            2.19876638       -0.58449185       -0.90093244
 C            1.61999586        1.66069849       -1.57875056
 C            0.62769236        3.01502734        0.16209772
 C            0.83042366        2.75164018       -1.19991855
 C           -1.27332835        3.02091439        1.67888548
 C           -0.55553350        3.62932031        0.58357485
 C           -2.39138451        0.95097478        1.05813512
 C           -2.39844841        2.34659310        1.06698128
 C           -2.37134822       -1.12542914       -0.17997331
 C           -2.54382864        0.26315668       -0.15513558
 C           -2.48683234       -1.80757095       -1.39934253
 C           -0.58270977       -3.10988981       -0.71596546
 C            0.75697023       -2.86725649       -1.04196633
 C           -1.55585354       -2.88732614       -1.66791421
 C            1.81228973       -1.04264041       -2.16061632
 C            1.05487014       -2.21815031       -2.23532978
 C            1.68672395        1.27339634       -2.91851432
 C            1.83607616       -0.13953638       -3.21935381
 C            0.75631306        1.83855641       -3.88623756
 C            0.04181613        3.39603567       -2.15806934
 C           -0.17783259        2.75750198       -3.43827432
 C           -1.57535199        3.99025858       -0.37446171
 C           -2.69269838        3.08065379       -0.14495687
 C           -1.24668761        3.93682067       -1.77591071
 C           -2.71843546        0.96547952       -1.36365952
 C           -1.58387134        2.37231393       -3.46568313
 C           -2.89439887        2.34291505       -1.36554102
 C           -2.25312695        3.10594784       -2.41375990
 C           -2.62903334       -1.05293084       -2.63296664
 C           -2.48632590        0.32545473       -2.58152292
 C           -1.88833622        1.02741570       -3.64513068
 C           -1.15268874       -2.80986020       -3.05514709
 C            0.22627208       -2.46777800       -3.32733230
 C           -1.98148416       -1.80653270       -3.69123971
 C            1.09436368       -0.41820740       -4.43308778
 C            0.27890617        0.74670034       -4.71750776
 C           -1.10827153        0.34500199       -4.57523822
 C            0.22364258       -1.57239917       -4.46342611
 C           -1.14445386       -1.09915312       -4.63560462
