   70
C70 / DATE: 7/ 1/2024 / Origin: Program Fullerene / C70 from database
 C            0.99818470       -0.12308727        4.87343834
 C            2.28739388       -0.31511850        4.23628823
 C            2.22894499       -1.56688678        3.49854700
 C            0.18110823       -1.28617046        4.56335075
 C            0.85585370       -2.02594036        3.51482542
 C           -1.16548603       -0.82431687        4.32254045
 C            0.21658931        1.06000953        4.55452213
 C           -1.15399912        0.63199785        4.35643895
 C            0.74509821        2.03339621        3.71401262
 C            2.79020833        0.70363712        3.33135576
 C            2.09524809        1.89494822        3.18177059
 C            2.85880240       -1.34999269        2.21337653
 C            3.29743197        0.03149104        2.14678847
 C            2.27877544       -1.89227869        1.07737214
 C            0.21627213       -2.24605466        2.29395824
 C            0.99296413       -2.44470191        1.14942809
 C           -1.82294637       -1.21708685        3.09235849
 C           -1.15411494       -1.99660615        2.15079101
 C           -1.88195045        1.09850289        3.18715662
 C           -2.54557864       -0.05868520        2.61745559
 C           -0.08731685        2.61629750        2.66821440
 C           -1.29587949        2.02207992        2.32098259
 C            2.12534551        2.56343515        1.89591965
 C            0.79649149        3.08786324        1.62253317
 C            3.24927260        0.67336584        0.90831334
 C            2.84558184        2.01582531        0.83959437
 C            2.73996809       -1.43759832       -0.15048718
 C            3.20727874       -0.12222657       -0.24526690
 C            2.33288083       -2.12364181       -1.28640240
 C            0.36901103       -2.85920153       -0.02937244
 C            1.13618803       -2.93833839       -1.19081937
 C           -1.71417957       -2.08023599        0.87586264
 C           -1.02114912       -2.75950138       -0.12270307
 C           -2.87582190       -0.01586184        1.27583360
 C           -2.71854971       -1.17229016        0.51688477
 C           -1.72832427        2.05616515        0.99168793
 C           -2.77029033        1.20271531        0.62359123
 C            0.35622412        3.10996650        0.30390460
 C           -0.91689949        2.61851553       -0.00712912
 C            2.64272409        2.59614711       -0.40780759
 C            1.32915981        3.15579667       -0.69356554
 C            3.34144710        0.48000195       -1.49251756
 C            3.09864553        1.90095392       -1.59312218
 C            2.32120497       -1.45792045       -2.57782310
 C            2.74990101       -0.14426857       -2.66334265
 C            0.49218505       -2.92487477       -2.49024422
 C            1.09918121       -1.84951341       -3.25997914
 C           -1.66149371       -2.98402507       -1.33917397
 C           -0.87927795       -3.10146019       -2.56046346
 C           -3.20486926       -1.16350231       -0.79111271
 C           -2.84903969       -2.20633513       -1.64665184
 C           -3.29429883        1.28362304       -0.65579046
 C           -3.68992236        0.04448762       -1.30407943
 C           -1.28577800        2.47342081       -1.34824544
 C           -2.58241656        2.06823284       -1.64341049
 C            0.97894003        2.79924452       -2.05576062
 C            2.11274701        2.10966557       -2.64030470
 C            1.88081977        0.83508073       -3.29482537
 C           -0.29364116        2.31656762       -2.31649888
 C            0.28133770       -0.87608111       -3.83167433
 C            0.57441253        0.47336026       -3.61341154
 C           -0.46110616        1.36954652       -3.32908079
 C           -1.60484890       -2.41964313       -3.61850060
 C           -2.89908233       -2.03086453       -3.08941328
 C           -1.00335076       -1.24275917       -4.22367740
 C           -3.68289415        0.30288996       -2.73258572
 C           -2.86299452        1.48479699       -2.94633891
 C           -1.74465470        1.09527336       -3.78140912
 C           -3.21952426       -0.72830205       -3.63562568
 C           -2.03214400       -0.22392957       -4.31048049
