   70
C70 / DATE: 7/ 1/2024 / Origin: Program Fullerene / C70 from database
 C            1.55535985       -0.12946737        5.04977653
 C            0.67907637       -1.28066439        5.17300747
 C            1.21791156       -2.33702018        4.33851308
 C            2.59473212       -0.45708793        4.08867716
 C            2.38533160       -1.81876387        3.64215049
 C            2.62047432        0.59123852        3.08786309
 C            0.77880295        0.95929146        4.48699943
 C            1.52800938        1.50616675        3.37185584
 C           -0.61542779       -0.91862889        4.62180987
 C           -0.56064814        0.47459037        4.21960104
 C            0.12571076       -2.86615078        3.54075178
 C           -0.96701556       -1.90711804        3.61592827
 C            0.44006566       -3.40641280        2.30446326
 C            2.51707333       -2.10035742        2.28576720
 C            1.76342987       -3.15032266        1.76182582
 C            2.84413940        0.24305604        1.76002556
 C            2.99037884       -1.10632603        1.41963270
 C            2.46369827        1.15209144        0.77119229
 C            0.81734158        2.00971243        2.28887521
 C            1.46848349        2.09198490        1.06471402
 C           -1.14022838        0.83041243        3.00873519
 C           -0.56967016        1.86857032        2.27388898
 C           -1.56558377       -1.46471557        2.43673188
 C           -1.89924618       -0.11340996        2.31943778
 C           -0.49244149       -3.23307174        1.20541510
 C           -1.45660818       -2.23465110        1.27578192
 C            1.67579314       -3.32060812        0.32401378
 C            0.26317432       -3.38470234       -0.02313110
 C            3.20994164       -1.43394418        0.08420966
 C            2.52597545       -2.58533547       -0.48446396
 C            2.82290233        0.90531095       -0.55485123
 C            3.20481987       -0.37943899       -0.91874358
 C            2.40460430        1.78076884       -1.55034073
 C            0.81773459        2.75184124        0.02820142
 C            1.43078855        2.80112095       -1.21777004
 C           -1.26256700        2.31271938        1.15066746
 C           -0.55670813        2.96909311        0.13989830
 C           -2.56652968        0.31288850        1.17618968
 C           -2.44633198        1.65489010        0.82328585
 C           -1.99624109       -1.73521877        0.09198101
 C           -2.81925510       -0.61927981        0.17294732
 C           -0.18017319       -2.73108668       -1.16760504
 C           -1.40887138       -2.06218168       -1.13780976
 C            2.07338944       -2.21621892       -1.81217667
 C            2.69167770       -0.94813430       -2.15488910
 C            0.74475757       -2.42468841       -2.16690221
 C            2.06415424        1.25610435       -2.86589482
 C            2.04492627       -0.12507295       -3.07277589
 C            0.64400144        3.07838905       -2.40770655
 C            1.02121070        2.10876838       -3.42553794
 C           -1.26386767        3.50231188       -0.93534792
 C           -0.68382474        3.45708133       -2.26678521
 C           -3.22534406        2.14352530       -0.21786384
 C           -2.67656897        3.19109566       -1.05919083
 C           -3.50626086       -0.21359118       -0.96290616
 C           -3.88647883        1.18310589       -1.08012854
 C           -1.91073351       -1.49902941       -2.31591467
 C           -3.02191058       -0.65535049       -2.25803957
 C            0.29417456       -1.82300941       -3.33233006
 C            1.04514989       -0.69391648       -3.86089208
 C           -1.11364587       -1.50171691       -3.45817156
 C            0.05215777        1.56499317       -4.25981515
 C            0.11411946        0.15416866       -4.58207039
 C           -1.21678663       -0.40596946       -4.40645685
 C           -1.68935164        2.92569690       -3.17491028
 C           -2.94353543        2.84382620       -2.44588588
 C           -3.68284237        1.59578404       -2.45788310
 C           -3.13568188        0.46571369       -3.18465147
 C           -1.34701317        1.91452558       -4.06900448
 C           -2.12807918        0.68182486       -4.11596880
