   70
C70 / DATE: 7/ 1/2024 / Origin: Program Fullerene / C70 from database
 C            1.55497337        0.01917539        4.63038123
 C            0.76634785       -1.19178448        4.56541132
 C            1.56857082       -2.18210525        3.88006718
 C            2.63700392       -0.11446075        3.66472503
 C            2.56725849       -1.44459684        3.11342059
 C            2.55100490        1.00379628        2.75726885
 C            0.71062096        1.10906435        4.18573636
 C            1.47710258        1.85870496        3.22564346
 C           -0.53002129       -0.86134782        3.99744166
 C           -0.55546912        0.56718743        3.73745620
 C           -1.06482404       -1.72445757        3.05255940
 C            0.89636847       -3.20841762        3.24068732
 C           -0.51221543       -3.00436701        2.92567735
 C            1.50865374       -3.76516739        2.05272445
 C            2.62513000       -1.61990144        1.72958074
 C            2.34446818       -2.89164065        1.24658843
 C            2.65110590        0.79502006        1.37824307
 C            2.52392726       -0.50927389        0.86770684
 C            2.30710613        1.87806314        0.56280730
 C            0.79350340        2.53763230        2.24362377
 C            1.54653150        2.89666651        1.14930554
 C           -1.07206986        1.03741730        2.52952792
 C           -0.54506934        2.21379433        1.99194128
 C           -1.83390368       -1.20278997        2.01231328
 C           -1.75588006        0.16075846        1.68634416
 C           -2.42845517       -2.08934686        1.12752342
 C           -0.81710467       -3.81153604        1.75481274
 C            0.44337763       -4.27158181        1.20733101
 C           -1.79254837       -3.37082200        0.87575907
 C            1.94614512       -3.06264533       -0.13011006
 C            0.77083254       -3.92359293       -0.16010190
 C            2.19634411       -0.69471980       -0.49042087
 C            1.99305034       -1.98481199       -0.99981113
 C            2.25042342        1.69890156       -0.82114985
 C            2.00617555        0.42024714       -1.32362159
 C            2.01055268        2.81205822       -1.62763976
 C            0.98785538        3.86577624        0.34847012
 C            1.49176310        4.00569776       -0.99232320
 C           -1.12184756        2.75621137        0.83897195
 C           -0.46050383        3.85100391        0.27386949
 C           -2.22636461        0.62453078        0.44655699
 C           -1.91186640        1.93023367        0.01945316
 C           -2.92976381       -1.60191551       -0.13462808
 C           -2.95028637       -0.23821808       -0.38813992
 C           -1.55302365       -3.45461189       -0.55974439
 C           -0.25351077       -3.60771596       -1.04775677
 C           -2.44891283       -2.49270004       -1.18054461
 C            1.31830978       -2.14033244       -2.20184998
 C            0.10666491       -2.94681206       -2.21562977
 C            1.43136640        0.26830499       -2.59568900
 C            1.09931986       -0.99718456       -3.05456041
 C            1.29876831        2.64683327       -2.88265286
 C            0.91327573        1.37269572       -3.27216018
 C            0.40206692        4.52587180       -1.79264937
 C           -0.82790358        4.31586200       -1.04153044
 C            0.32080031        3.71669846       -2.98897834
 C           -2.30238754        2.36938613       -1.26163014
 C           -1.68996886        3.48203692       -1.84132707
 C           -1.06792895        3.34495588       -3.15408587
 C           -3.20682794        0.13492940       -1.69781843
 C           -2.94794933        1.49015253       -2.12161165
 C           -2.13619368       -1.94202179       -2.41724457
 C           -0.89230663       -2.22431701       -2.98591491
 C           -0.17337320       -1.19470554       -3.72624948
 C           -2.78911776       -0.76354648       -2.76633319
 C           -0.25226177        1.22908214       -4.03410432
 C           -1.33329791        2.19384208       -3.87417944
 C           -2.51130436        1.43670225       -3.50651431
 C           -0.86008035       -0.08344109       -4.18663926
 C           -2.26222683        0.04759518       -3.84458558
