   70
C70 / DATE: 7/ 1/2024 / Origin: Program Fullerene / C70 from database
 C            1.36712853       -0.25588486        4.39603435
 C            2.61516328       -0.58462368        3.74746752
 C            2.51275234       -1.94103815        3.22966267
 C            0.51724233       -1.43651451        4.35394947
 C            1.19237279       -2.44561579        3.55665907
 C           -0.81543742       -1.00020402        3.96551692
 C            0.58927192        0.85546124        3.88127671
 C           -0.80191221        0.45179681        3.96477987
 C            1.03063506        1.55198200        2.75211219
 C            3.06988104        0.25734014        2.66115324
 C            2.35304336        1.39934209        2.30770360
 C            2.93788718       -1.91522204        1.83781211
 C            3.53521153       -0.61620330        1.59941649
 C            2.11921020       -2.46637797        0.85697581
 C            0.47267742       -3.11819444        2.58074981
 C            1.02432625       -3.24335078        1.23808278
 C           -1.49179404       -1.67382013        2.94905456
 C           -0.94881649       -2.85205456        2.43454002
 C           -2.50903049       -1.01533869        2.24972845
 C           -1.72839566        1.11999441        3.18708110
 C           -2.71459455        0.34626238        2.45410619
 C            0.08864161        2.21868523        1.95529651
 C           -1.25881509        2.15990613        2.29010247
 C            0.45826483        2.75639709        0.72313084
 C            2.75618688        2.04476198        1.14424585
 C            1.80847465        2.86201053        0.41602964
 C            3.54933909       -0.11195965        0.30701189
 C            3.49731471        1.27199782        0.15985571
 C            2.18460651       -1.95824833       -0.44398987
 C            3.07471704       -0.91256548       -0.73099969
 C            1.20272053       -2.32390585       -1.37285548
 C           -0.09608480       -3.39388066        0.32485826
 C           -1.31944545       -3.29346771        1.10332129
 C           -0.02664307       -2.79172591       -0.92494552
 C           -3.10471682       -1.62755378        1.14958518
 C           -2.44395332       -2.75251455        0.50859018
 C           -3.69739311       -0.80930916        0.09808038
 C           -3.16857628        1.17638324        1.35090350
 C           -2.25040651        2.30149304        1.24352557
 C           -3.64403317        0.58440514        0.18463302
 C           -0.50520846        2.98441496       -0.26999938
 C           -1.85707371        2.72385807       -0.01993172
 C           -0.10015027        3.29984757       -1.56683679
 C            2.23379281        2.88821514       -0.97338146
 C            3.23597736        1.84766706       -1.14888250
 C            1.28427063        3.10678041       -1.95908460
 C            3.18037790       -0.43174984       -2.03282531
 C            3.17378541        1.00548461       -2.25179016
 C            1.31739235       -1.93672018       -2.69820593
 C            2.38878647       -1.04206881       -3.07974164
 C            0.11811290       -1.52606714       -3.40337182
 C           -1.19919443       -2.40775657       -1.58556218
 C           -2.41986755       -2.48366571       -0.91712397
 C           -3.43044355       -1.47772188       -1.17098067
 C           -1.12275997       -1.71109837       -2.79768184
 C           -3.34466301       -0.72859471       -2.33212770
 C           -2.17178221       -0.87393693       -3.18179736
 C           -3.64325027        1.34638593       -0.98177623
 C           -2.72087062        2.46727645       -1.08393721
 C           -3.67408874        0.68056009       -2.27045547
 C           -0.92349548        2.89345624       -2.68934418
 C           -1.86080352        0.43142061       -3.74513695
 C           -2.23932338        2.53257482       -2.45499848
 C           -2.78095560        1.39359016       -3.16804426
 C            1.29175443        2.29763546       -3.17031247
 C            2.23394242        1.28869419       -3.32506596
 C            1.81800964        0.02124330       -3.89102672
 C            0.40094222       -0.25114000       -4.04526931
 C           -0.09520312        2.06191349       -3.55427285
 C           -0.52503126        0.78085629       -3.92127753
