   70
C70 / DATE: 7/ 1/2024 / Origin: Program Fullerene / C70 from database
 C            1.08006184       -0.22278919        4.65535563
 C            2.33099630       -0.53261591        3.99573701
 C            2.18042462       -1.81283126        3.32476127
 C            0.21228582       -1.38037164        4.51775962
 C            0.81839973       -2.27007141        3.54493824
 C           -1.12753413       -0.89677885        4.27011075
 C            0.33332711        0.94246462        4.21262803
 C           -1.06164385        0.54924610        4.12087541
 C            0.86123280        1.75792249        3.21250328
 C            2.83967365        0.40655705        3.02051273
 C            2.21461478        1.63596658        2.85925499
 C            2.64855177       -1.65981599        1.95227289
 C            3.19785132       -0.32925231        1.81901953
 C            1.86392922       -2.16344950        0.92833415
 C            0.08593619       -2.69162974        2.43828294
 C            0.79083658       -2.97838195        1.27078814
 C           -1.84832326       -1.41692741        3.12629296
 C           -1.28919240       -2.42472322        2.34554392
 C           -1.80753596        0.90492052        2.92427352
 C           -2.45407899       -0.29612779        2.43947288
 C           -0.02707954        2.39082476        2.33412122
 C           -1.22514661        1.76307749        2.00280035
 C            0.44562423        3.39361981        1.50393990
 C            2.69524659        2.41776051        1.81934671
 C            1.87792611        3.51222653        1.34657078
 C            3.10492066        0.33862054        0.60015823
 C            3.21466738        1.72256493        0.64821654
 C            1.87204788       -1.53937824       -0.32370169
 C            2.40408597       -0.25039530       -0.46447304
 C            1.13217457       -2.11413497       -1.36116977
 C            0.13138036       -3.64674902        0.25963667
 C            0.47983498       -3.32090149       -1.10842946
 C           -1.92710716       -2.72157475        1.13974308
 C           -1.31178664       -3.66503735        0.32216177
 C           -2.67790451       -0.43620732        1.07886518
 C           -2.73122804       -1.72565100        0.56121858
 C           -1.62207097        1.70195131        0.66369715
 C           -2.39207660        0.62511465        0.21325829
 C           -0.15643246        3.55478191        0.18914585
 C           -1.10518064        2.62417174       -0.24859785
 C            2.15363320        3.67875128       -0.06415494
 C            2.88037620        2.50424753       -0.51751109
 C            0.89712398        3.98566960       -0.71804299
 C            2.11987901        0.49660025       -1.61934781
 C            2.42551753        1.87034102       -1.66463881
 C            0.78805768       -1.34711440       -2.48291231
 C            1.40223756       -0.09884419       -2.67171926
 C           -0.25616120       -1.75637261       -3.34043973
 C           -0.65265314       -3.70714828       -1.91760245
 C           -1.79225820       -3.88078430       -1.02481768
 C           -1.06185621       -2.83001118       -2.98401578
 C           -3.23487492       -1.87933204       -0.72389844
 C           -2.86483756       -3.04223428       -1.50690554
 C           -2.48313919       -2.57457666       -2.82281419
 C           -2.64550581        0.47147344       -1.15365263
 C           -3.22295006       -0.72251333       -1.60641922
 C           -2.93730177       -1.20147291       -2.95183603
 C           -1.30406127        2.43864253       -1.62124778
 C           -2.08069494        1.36155747       -2.07531480
 C            0.78468584        3.63126276       -2.04798237
 C            1.75662355        2.68359485       -2.57146136
 C           -0.49242196        3.14516080       -2.51505224
 C            1.09644526        0.65024751       -3.81110478
 C            1.16871310        2.09029312       -3.74480437
 C           -0.19945253        2.58542898       -3.81617571
 C           -0.86678878       -0.80835794       -4.14939995
 C           -2.20968193       -0.37782861       -3.79032172
 C           -2.07421867        1.01483055       -3.43050373
 C           -0.12940968        0.37106907       -4.52104888
 C           -1.01673381        1.50142405       -4.29007979
