   70
C70 / DATE: 7/ 1/2024 / Origin: Program Fullerene / C70 from database
 C            1.35770601        0.11850033        5.12850950
 C            0.59591668       -1.10319441        4.94388460
 C            1.51174628       -2.12000635        4.47927563
 C            2.64259435       -0.06935694        4.47547056
 C            2.80786781       -1.48913152        4.26002807
 C            2.69286848        0.82978220        3.33256463
 C            0.65809239        1.17952244        4.42634635
 C            1.56570750        1.73901365        3.45119436
 C           -0.55646332       -0.78348904        4.12339071
 C           -0.59923847        0.65362118        3.93568021
 C           -0.88476703       -1.58283630        3.03580700
 C            1.17764033       -2.85377103        3.27464715
 C           -0.00322411       -2.58113509        2.58730823
 C            3.29829438       -1.93413985        2.97242590
 C            2.39231929       -2.96598035        2.49899199
 C            3.03964661        0.35412462        2.05982941
 C            3.44424058       -0.97065955        1.89159731
 C            2.61995509        1.08214913        0.93841417
 C            1.02531564        2.22869916        2.27703093
 C            1.83892587        2.21681224        1.15789327
 C           -1.07393356        1.13542419        2.71704733
 C           -0.35542549        2.14499273        2.07342952
 C           -1.82148233       -1.07843377        2.13718500
 C           -1.88728109        0.30755559        1.94092397
 C           -2.26956675       -1.93003530        1.14117599
 C           -0.10019163       -3.00879487        1.26038888
 C           -1.34652633       -2.93241486        0.64997991
 C            2.28692075       -2.82198081        1.05974811
 C            3.07244195       -1.66292974        0.67427891
 C            1.04440038       -2.98231457        0.45489323
 C            2.59201314        0.46673135       -0.32426951
 C            2.62822707       -0.92211308       -0.41082215
 C            2.11989109        1.18557258       -1.42908997
 C            1.41963423        2.96906895        0.07821860
 C            1.75285492        2.51680046       -1.25224743
 C           -0.86213879        2.66614328        0.88349375
 C            0.02164969        3.35005196        0.04801205
 C           -2.41770957        0.82232196        0.75241005
 C           -2.00769350        2.09465359        0.32759954
 C           -2.98768602       -1.38850427        0.00896102
 C           -3.14177526       -0.01723084       -0.10673368
 C           -1.43456997       -2.93438993       -0.80046235
 C           -2.60168188       -2.14851581       -1.16801875
 C            0.91972927       -2.54826468       -0.86301638
 C            1.77932644       -1.54166726       -1.31802511
 C           -0.27113185       -2.79672297       -1.54391052
 C            1.67374630        0.50042845       -2.56818061
 C            1.49435778       -0.88841078       -2.50935249
 C            1.16145515        1.23771234       -3.63968860
 C            0.78877994        3.12844331       -2.15316993
 C           -0.33001167        3.58899936       -1.34114965
 C            0.54892111        2.52597773       -3.37748080
 C           -2.52658320        2.64386275       -0.84260374
 C           -1.63101373        3.33909545       -1.75265140
 C           -3.59922091        0.46187694       -1.32765211
 C           -3.44600836        1.86396305       -1.64007999
 C           -2.63042206       -1.52370150       -2.41269151
 C           -3.30835920       -0.30653900       -2.53075238
 C           -0.38039126       -2.39542932       -2.86960617
 C            0.65191586       -1.53585556       -3.40743263
 C           -1.65213235       -1.86972385       -3.34365289
 C            0.36387234        0.58911624       -4.66281008
 C            0.08063709       -0.81994243       -4.52887006
 C           -1.36400514       -0.98740125       -4.46196755
 C           -0.80605213        2.48066615       -3.90741799
 C           -1.87801200        2.83858199       -3.09554722
 C           -3.04610689        1.97607596       -3.03406475
 C           -2.97427037        0.63549541       -3.59200102
 C           -0.90645396        1.29400877       -4.74381289
 C           -1.96808160        0.32917139       -4.49880357
