   70
C70 / DATE: 7/ 1/2024 / Origin: Program Fullerene / C70 from database
 C            1.17870259        0.18420670        5.67909831
 C            0.40805912       -1.01782229        5.41723212
 C            1.27577879       -1.96906825        4.74920886
 C            2.46305806        0.03863366        5.01362565
 C            2.50813173       -1.27728033        4.40754428
 C            2.64645794        1.19680122        4.16621538
 C            0.48418888        1.30141721        5.05752786
 C            1.44514824        2.01792501        4.25688278
 C           -0.81862742       -0.62208981        4.75223716
 C           -0.70239094        0.78608894        4.40363506
 C           -1.37554921       -1.48131754        3.81740629
 C            0.78763938       -2.62595796        3.54631443
 C           -0.55982582       -2.54407933        3.23184804
 C            2.69073603       -1.39576105        2.96920752
 C            1.75611681       -2.39872219        2.48882908
 C            2.92228302        1.00932999        2.75178051
 C            2.92100299       -0.26711770        2.18035315
 C            1.07631031        2.38398861        2.90218079
 C            2.20852568        2.06779678        2.06323723
 C           -1.02132331        1.19027195        3.10161977
 C           -0.19147939        2.08437493        2.40534745
 C           -2.14234641       -0.90569876        2.73338870
 C           -1.94996278        0.43240110        2.38692842
 C           -0.95708653       -2.67546212        1.83847544
 C           -2.16028771       -1.89211199        1.67223439
 C            1.32685638       -2.31265236        1.16616116
 C            0.00357180       -2.61828814        0.83112071
 C            2.67622395       -0.36058135        0.80938065
 C            2.05539270       -1.50542126        0.30282815
 C            1.96548728        1.90517933        0.71213937
 C            2.55840180        0.82207340        0.08146034
 C           -0.38158299        2.24114134        1.02771325
 C            0.74347054        2.34022719        0.20517317
 C           -2.30829541        0.81870152        1.09808728
 C           -1.58074598        1.82802461        0.46261974
 C           -2.46803201       -1.44107777        0.40405680
 C           -2.93316610       -0.13887388        0.30491611
 C           -0.43111550       -2.35724252       -0.47519425
 C           -1.75365164       -1.95216287       -0.68014663
 C            1.74953177       -1.53264777       -1.05127888
 C            0.51743770       -2.05771114       -1.45021443
 C            2.38868076        0.72838749       -1.29169042
 C            2.32434526       -0.54774367       -1.84005127
 C            0.58746034        2.28129440       -1.18004880
 C            1.64394205        1.73324984       -1.90396171
 C           -1.80197671        2.05195766       -0.89872706
 C           -0.69590138        2.25982027       -1.73864010
 C           -3.42367500        0.25515939       -0.92130258
 C           -2.97633275        1.53209877       -1.43040051
 C           -2.15976499       -1.54664999       -1.95452651
 C           -3.24641879       -0.66927105       -2.01722794
 C            0.10262977       -1.85827225       -2.76982120
 C           -1.25496254       -1.60303905       -3.02470446
 C            2.17688902       -0.65452208       -3.21303625
 C            1.07726164       -1.46861418       -3.69234991
 C            1.58909710        1.74229864       -3.28759753
 C            2.12883002        0.58103539       -3.96722057
 C           -0.82526926        2.16055414       -3.13741752
 C            0.32643333        2.06368513       -3.92432217
 C           -3.16312872        1.49006403       -2.86477898
 C           -3.48722256        0.10979494       -3.21033476
 C           -2.06756955        1.88652716       -3.71512805
 C           -1.67579514       -1.18948034       -4.29685413
 C           -2.75126358       -0.22437802       -4.40448088
 C           -2.14693389        1.00889210       -4.87292898
 C            0.69952540       -0.95624681       -4.99599552
 C            1.33941210        0.33978629       -5.15780277
 C            0.28645241        1.33656871       -5.18773124
 C           -0.70214197       -0.78088149       -5.28996246
 C           -0.92564672        0.63848942       -5.55213691
