   70
C70 / DATE: 7/ 1/2024 / Origin: Program Fullerene / C70 from database
 C            1.67336264        0.04362846        4.65728153
 C            0.84164522       -1.13873107        4.73407856
 C            1.42229000       -2.13569682        3.85284734
 C            2.60201934       -0.14442261        3.55275983
 C            2.33166675       -1.43317819        2.95905893
 C            2.50911463        1.02219435        2.70797726
 C            0.81104667        1.15731930        4.31096778
 C            1.45999810        1.87061981        3.24091681
 C           -0.53878868       -0.73531898        4.50873474
 C           -0.51765042        0.64514100        4.05374710
 C           -1.38350677       -1.63566967        3.88015495
 C            0.57503916       -3.08942861        3.31491020
 C           -0.85551037       -2.94819467        3.54888210
 C            0.73717888       -3.45711542        1.92047277
 C            2.13181470       -1.51495935        1.58092437
 C            1.47485079       -2.63214307        1.06482681
 C            2.55362073        0.87273007        1.32291891
 C            2.36287293       -0.39752216        0.75862322
 C            2.19151498        1.98732330        0.56931908
 C            0.67183122        2.50738678        2.30306662
 C            1.32934144        2.91793328        1.16267262
 C           -1.13350672        0.99471999        2.84994626
 C           -0.66369005        2.11060267        2.14622826
 C           -2.16881207       -1.18694791        2.74056676
 C           -1.92440659        0.06085633        2.17810346
 C           -1.54435596       -3.41288333        2.36093914
 C           -0.54553524       -3.97250235        1.47261079
 C           -2.36760925       -2.32484776        1.86015123
 C           -0.80910849       -3.93624680        0.11772992
 C            1.27603450       -2.74024463       -0.30891590
 C            0.28119336       -3.60092623       -0.76967223
 C            2.13700445       -0.50423144       -0.62160430
 C            1.75153614       -1.73758183       -1.15669240
 C            2.25673433        1.90810922       -0.81893464
 C            2.13298367        0.65041913       -1.42610076
 C            2.01665235        3.07185283       -1.54832172
 C            0.63798664        3.79991326        0.35920846
 C            1.15685770        4.07323383       -0.95799098
 C           -1.32636924        2.50045111        0.97217026
 C           -0.78881025        3.57237135        0.25043032
 C           -2.23435809        0.27284859        0.83733104
 C           -2.12476097        1.55922705        0.31270037
 C           -2.41289853       -2.11984652        0.48361385
 C           -1.93081080       -3.13133777       -0.34181199
 C           -2.45772442       -0.81694116       -0.01641360
 C           -0.33913265       -3.33107282       -2.04556653
 C           -1.67964050       -2.84137644       -1.74217280
 C            1.53069618       -1.85875085       -2.52641972
 C            0.40280661       -2.65411102       -2.99378182
 C            1.91925737        0.54988899       -2.81144326
 C            1.62333069       -0.68629015       -3.37236348
 C            1.65518898        2.98428277       -2.94261716
 C            1.53795974        1.67653073       -3.53784215
 C            0.02201214        4.25925763       -1.84221508
 C           -1.16047685        3.78971376       -1.13824857
 C            0.37525820        3.66287612       -3.11430685
 C           -2.57316464        1.79700571       -0.98438214
 C           -2.02230620        2.89626101       -1.75658314
 C           -2.51954233       -0.61451824       -1.39924676
 C           -2.08124044       -1.61815349       -2.27195189
 C           -2.75696654        0.66935083       -1.88055148
 C           -0.32441366       -1.84849206       -3.95137778
 C            0.54125202       -0.75818307       -4.34221606
 C           -1.58958985       -1.27470996       -3.53135555
 C            0.28175566        1.64888251       -4.26995590
 C           -0.53730768        2.71788350       -3.73007759
 C           -1.73961928        2.40518722       -3.10085850
 C           -2.26533527        1.05268903       -3.19464471
 C           -0.29246870        0.41481547       -4.52915106
 C           -1.60629140        0.10906944       -3.97108315
