   70
C70 / DATE: 7/ 1/2024 / Origin: Program Fullerene / C70 from database
 C            1.23535367       -0.11346035        4.38179055
 C            2.52803546       -0.45976312        3.83641970
 C            2.43504521       -1.80353960        3.28658647
 C            0.38878001       -1.28798471        4.26731064
 C            1.04830081       -2.22625078        3.38884400
 C           -0.92768970       -0.83668016        3.89835177
 C            0.51263520        1.00643299        3.80135303
 C           -0.87374573        0.59750256        3.66416556
 C            1.09498204        1.75228960        2.78167521
 C            3.08524100        0.39290163        2.81062695
 C            2.45985627        1.59228276        2.48961966
 C            3.07217522       -1.79906078        1.98073761
 C            3.53702509       -0.44771633        1.71602727
 C            2.48425616       -2.51642752        0.95557027
 C            0.38466534       -2.65988191        2.24115815
 C            1.14666452       -3.06185213        1.14605806
 C           -1.66781874       -1.58840208        3.00405773
 C           -0.98448300       -2.39349274        2.07185754
 C           -2.85976182       -1.00058066        2.61680473
 C           -1.65076610        1.11214051        2.62375525
 C           -2.82366737        0.42388865        2.32098450
 C            0.25105373        2.38117154        1.86027473
 C           -1.01997775        1.85666389        1.61975837
 C            0.78068811        3.30375923        0.97017419
 C            2.98777662        2.27005303        1.40078623
 C            2.21698793        3.34032951        0.80857949
 C            3.48513432        0.08253623        0.42495227
 C            3.54210588        1.46857446        0.31753924
 C            2.55212823       -1.99258776       -0.39484568
 C            2.89658345       -0.65776644       -0.60982526
 C            0.52990470       -3.16008779       -0.16148157
 C            1.43766716       -2.56331747       -1.12602365
 C           -1.60551657       -2.72645218        0.85527800
 C           -0.83043220       -2.92424028       -0.29399117
 C           -3.65589271       -1.64723130        1.60600904
 C           -2.98616321       -2.58092895        0.73168443
 C           -3.44067976        0.60104405        1.02271300
 C           -4.21564177       -0.59845494        0.77297715
 C           -1.54835718        1.89425547        0.31843349
 C           -2.68836283        1.16235304       -0.00421526
 C            0.18391582        3.42720717       -0.34896975
 C           -0.88772673        2.59950363       -0.68597133
 C            2.50283977        3.34696777       -0.61110518
 C            3.19204246        2.10798252       -0.93133153
 C            1.26237396        3.63226191       -1.30531755
 C            2.42745120       -0.01582252       -1.76626668
 C            2.70170394        1.34444911       -1.98109785
 C            0.90149644       -1.85019768       -2.18383665
 C            1.56725259       -0.70927494       -2.63345075
 C           -1.32079384       -2.55270251       -1.55031581
 C           -0.44110907       -2.04682370       -2.51411212
 C           -3.56613756       -2.39370238       -0.58263576
 C           -4.26753311       -1.11387736       -0.57203672
 C           -2.68988164       -2.38169752       -1.73689883
 C           -2.93772617        0.81929068       -1.34042045
 C           -3.69298175       -0.32060672       -1.63775014
 C           -3.14240393       -1.28212526       -2.56733426
 C           -1.12286736        2.27362422       -2.02555947
 C           -2.10860278        1.32836832       -2.34709472
 C            1.11352724        3.10686388       -2.57569595
 C            2.01172387        2.03248641       -2.97551811
 C           -0.20638678        2.68935777       -2.99553892
 C            1.16973712       -0.13296632       -3.83518344
 C            1.34438306        1.28901719       -4.01913860
 C            0.01819110        1.86904502       -4.16689961
 C           -0.96779416       -1.40846522       -3.63541309
 C           -2.28271732       -0.80325282       -3.53307816
 C           -2.03735423        0.62258427       -3.55470737
 C           -0.14199725       -0.45722329       -4.36032659
 C           -0.89671456        0.78770923       -4.42952631
