   70
C70 / DATE: 7/ 1/2024 / Origin: Program Fullerene / C70 from database
 C            1.44874148        0.10811389        4.88333862
 C            0.65641180       -1.09763753        4.70141718
 C            1.47801326       -2.06205723        4.00940079
 C            2.64580658       -0.02827902        4.07345140
 C            2.74190310       -1.41599946        3.68465241
 C            2.60042895        0.97963865        3.02550952
 C            0.68266900        1.21930712        4.35098785
 C            1.44014428        1.81878904        3.27478667
 C           -0.60334430       -0.71000428        4.09997275
 C           -0.64507798        0.73728321        4.04216112
 C           -1.10682644       -1.41152582        3.00558413
 C            0.96814797       -2.65984087        2.78806851
 C           -0.29120080       -2.32336390        2.31314048
 C            3.02521921       -1.70849707        2.29824427
 C            2.06009749       -2.69398994        1.84118255
 C            2.89808438        0.62340085        1.70558788
 C            3.35242302       -0.67495699        1.42651408
 C            2.38639878        1.41972395        0.66770171
 C            0.74215617        2.30019716        2.17827459
 C            1.40908969        2.37399406        0.96477047
 C           -1.31301513        1.30022571        2.96482902
 C           -0.65731211        2.25025805        2.17283762
 C           -2.18356629       -0.83764469        2.32683254
 C           -2.33042714        0.55384082        2.38236826
 C           -2.74474802       -1.55394999        1.27511066
 C           -0.58618410       -2.62717573        0.98549383
 C           -1.89967965       -2.49550701        0.56887985
 C            1.78209295       -2.72769087        0.47556082
 C            0.44735798       -2.69092495        0.03828091
 C            3.51128672       -1.04823786        0.10253345
 C            2.76671786       -2.21175758       -0.35531233
 C            2.69725880        1.11892420       -0.66502340
 C            3.39999622       -0.04792161       -0.93525475
 C            2.06091988        1.79518081       -1.71533744
 C            0.81266469        3.09653794       -0.05260008
 C            1.14914773        2.80407010       -1.42973073
 C           -1.34646069        2.79671724        1.08311956
 C           -0.61720911        3.34426704        0.02373045
 C           -3.16648841        1.20944737        1.48934558
 C           -2.68141019        2.43879575        0.88877612
 C           -3.58931686       -0.88493755        0.30167974
 C           -3.87312261        0.45987177        0.46654340
 C           -2.19778807       -2.39880286       -0.84158486
 C           -3.24234490       -1.39861941       -1.01698016
 C            0.16308082       -2.50840284       -1.33127064
 C           -1.17176435       -2.46588462       -1.77164746
 C            2.48421444       -2.01987546       -1.75574889
 C            3.12285977       -0.77489206       -2.15639044
 C            1.21741310       -2.31081460       -2.24249389
 C            2.03850539        1.23936399       -2.99741651
 C            2.59338313       -0.08499505       -3.23121573
 C            0.82485696        1.36100750       -3.79406951
 C           -0.07031377        2.89761139       -2.21791465
 C           -1.14391352        3.31080189       -1.33509068
 C           -0.29809357        1.95580811       -3.21868086
 C           -3.27652404        2.54696639       -0.43109303
 C           -3.98158832        1.30478944       -0.70575144
 C           -2.42354408        2.84085452       -1.56584364
 C           -3.19620299       -0.55026276       -2.12674047
 C           -1.57014452        1.37127941       -3.36049683
 C           -3.51429208        0.80046238       -1.98318887
 C           -2.62634879        1.80107051       -2.55937166
 C           -1.47136115       -2.02449739       -3.05441703
 C           -2.40686396       -0.92296058       -3.21102364
 C           -1.70638185        0.11402199       -3.94739304
 C            0.95342232       -1.93276480       -3.55636189
 C            1.67496033       -0.79590323       -4.10282141
 C            0.69225384        0.15605609       -4.58703773
 C           -0.41047470       -1.83292630       -4.01405934
 C           -0.58479360       -0.51517641       -4.61130580
