   70
C70 / DATE: 7/ 1/2024 / Origin: Program Fullerene / C70 from database
 C            1.19642454        0.16158143        4.73783600
 C            2.48467110       -0.03738394        4.11559131
 C            2.45445315       -1.31702886        3.41796891
 C            0.37371885       -0.98960936        4.40158226
 C            1.08216215       -1.76269097        3.40033527
 C           -0.94862926       -0.49986355        4.07214115
 C            0.44678229        1.35376999        4.39448864
 C           -0.92480863        0.94757032        4.16936678
 C            0.86007651        2.14740498        3.24681549
 C            2.95367434        0.93767344        3.15138396
 C            2.06870608        1.88199448        2.61626544
 C            3.13762093       -1.12515394        2.15483988
 C            3.77809584        0.17487735        2.23789276
 C            2.50229387       -1.47591248        0.96153622
 C            0.45397603       -1.99013713        2.18137540
 C            1.17971830       -1.94013805        0.98373834
 C           -1.61104105       -1.03983682        2.98036089
 C           -0.93734206       -1.92636924        2.13301954
 C           -2.61871637       -0.27057419        2.42192525
 C           -1.43425922        1.70418641        3.03682686
 C           -0.31124554        2.39376267        2.42386762
 C           -2.34036715        1.07917971        2.19429710
 C           -0.18385324        2.37458952        1.03241849
 C            2.22774914        2.26059743        1.28418755
 C            1.09095763        2.38530336        0.46132942
 C            4.13919920        0.77767966        1.05336109
 C            3.47181947        2.01935433        0.71279436
 C            3.03830273       -0.98148212       -0.23153038
 C            4.04973788       -0.01638478       -0.14944180
 C            2.35383057       -1.18141975       -1.43809921
 C            0.50160242       -2.15159447       -0.21767045
 C            1.09344771       -1.78434850       -1.43251888
 C           -1.58959777       -2.34996366        0.97573709
 C           -0.83638554       -2.55440036       -0.18323876
 C           -3.47992825       -0.91662905        1.55323788
 C           -2.95562567       -2.08358692        0.86691802
 C           -4.16840160       -0.11343996        0.56590492
 C           -2.44752008        1.55882954        0.89294171
 C           -1.28986494        2.01714444        0.25139498
 C           -3.52643018        1.11584482        0.14274128
 C           -1.14792893        1.87267457       -1.13725408
 C            1.21454119        2.40142942       -0.93473959
 C            0.10529811        2.08244725       -1.73944044
 C            3.64678320        2.19609885       -0.70902124
 C            4.21081974        0.94891650       -1.21217882
 C            2.48294997        2.48419680       -1.51387228
 C            2.75991549       -0.50972927       -2.59016567
 C            3.58403997        0.67579380       -2.47662441
 C            2.71701077        1.80589198       -2.76543486
 C            0.31022944        1.71269151       -3.08256925
 C            1.75689254       -0.16264557       -3.56829939
 C            1.57248648        1.27512179       -3.45251271
 C            0.35345113       -1.85133928       -2.62359012
 C            0.60089701       -0.92141685       -3.64402284
 C           -1.47632255       -2.90142271       -1.36888916
 C           -0.84659220       -2.56448872       -2.63318456
 C           -3.61337521       -2.16879050       -0.42406208
 C           -4.37559183       -0.94263392       -0.60415653
 C           -2.90944614       -2.67880636       -1.50441411
 C           -3.42814038        1.08345800       -1.29999021
 C           -2.24970743        1.49044701       -1.91704506
 C           -4.11009439       -0.12075599       -1.76778773
 C           -0.72199205        1.10197671       -3.77546856
 C           -0.48565996       -0.26406959       -4.20847900
 C           -2.06134745        1.14901939       -3.24876076
 C           -1.90165471       -2.17969480       -3.55995785
 C           -3.14713624       -2.10793156       -2.81981494
 C           -3.65519803       -0.74473151       -2.91982090
 C           -1.75892450       -0.93750554       -4.28404434
 C           -2.76120726       -0.00759722       -3.78832090
