   70
C70 / DATE: 7/ 1/2024 / Origin: Program Fullerene / C70 from database
 C            1.22936175        0.22425060        4.74669706
 C            2.48335889        0.00224238        4.05990280
 C            2.52297003       -1.39425842        3.66395409
 C            0.40936795       -0.96751742        4.57204572
 C            1.18073666       -1.93141370        3.81217967
 C           -0.87815516       -0.54972877        4.05361834
 C            0.42936227        1.36783785        4.36550582
 C           -0.92402009        0.89509363        4.13160612
 C            0.81584646        2.15463685        3.20470326
 C            2.80063003        0.79525491        2.88361555
 C            1.93913288        1.80807077        2.44860763
 C            3.15801390       -1.46757129        2.35882405
 C            3.37378529       -0.10555878        1.89822110
 C            2.69402605       -2.40994254        1.45569731
 C            0.59254032       -2.56117802        2.71888117
 C            1.42864532       -3.07200317        1.72720462
 C           -1.37496670       -1.16441849        2.90934119
 C           -0.75221293       -2.31445525        2.42035928
 C           -2.25281179       -0.45618396        2.08328155
 C           -1.44706443        1.62132092        2.99258839
 C           -0.40978476        2.51242708        2.51157758
 C           -2.19167174        0.94120361        2.04449296
 C           -0.34270642        2.77304386        1.14733428
 C            1.98703088        2.19750559        1.10626547
 C            0.91422797        2.92443371        0.57708775
 C            3.20552553        0.20888634        0.55546842
 C            2.84707293        1.51356442        0.24047716
 C            2.71991651       -2.10064165        0.03757388
 C            2.96964951       -0.79943290       -0.38687556
 C            0.86988908       -3.48359986        0.45250137
 C            1.64385209       -2.83935387       -0.59582790
 C           -1.34551732       -2.99317951        1.36087940
 C           -0.50425954       -3.56120598        0.31830152
 C           -2.92338914       -1.12932948        1.05891319
 C           -2.51467745       -2.41808701        0.71398708
 C           -3.66670946       -0.38381782        0.14402846
 C           -2.41552272        1.57956597        0.83399829
 C           -1.41902560        2.41728910        0.32325035
 C           -3.35825345        1.02669777       -0.01383691
 C           -1.32546567        2.64419543       -1.05741686
 C            0.98649585        3.39807061       -0.72427016
 C           -0.19741629        3.29250900       -1.56101929
 C            2.93238018        1.90538645       -1.08684945
 C            2.13169954        3.02725618       -1.52778187
 C            2.58114131       -0.43471294       -1.67907659
 C            2.83920407        0.86917845       -2.09763605
 C            0.99269932       -2.25678366       -1.67809400
 C            1.61410526       -1.20047554       -2.34293373
 C           -1.10319882       -3.22208954       -0.95878276
 C           -2.46652686       -2.81604874       -0.68740925
 C           -0.36311759       -2.52019494       -1.90828029
 C           -3.92463562       -0.92848579       -1.17662316
 C           -3.13119558       -2.05254988       -1.63284817
 C           -3.30692568        1.32482074       -1.42994647
 C           -2.22120597        2.02853290       -1.93873601
 C           -3.77405228        0.14801778       -2.14068295
 C           -1.86011425        1.82481206       -3.27324209
 C            0.24247980        3.02836632       -2.92157125
 C            1.66786592        2.74777348       -2.87400584
 C            2.14032228        1.42320024       -3.24478919
 C           -0.55863963        2.25832047       -3.75065467
 C            1.07365711       -0.76022259       -3.54536742
 C            1.30853107        0.60339508       -3.99168379
 C            0.04082403        1.13805068       -4.45967059
 C           -1.03638595       -1.84733627       -2.93211594
 C           -2.41481533       -1.62793734       -2.82724661
 C           -2.97765179       -0.34924506       -3.24468001
 C           -2.16049678        0.54923708       -3.91254815
 C           -0.30230185       -1.10706796       -3.85619123
 C           -0.92145341        0.05157982       -4.47427769
