   70
C70 / DATE: 7/ 1/2024 / Origin: Program Fullerene / C70 from database
 C            1.57218484        0.06567201        4.58398104
 C            0.75798472       -1.13391777        4.53763580
 C            1.40831913       -2.07909181        3.65089745
 C            2.63511499       -0.07860168        3.60123840
 C            2.56416163       -1.41264045        3.06438007
 C            2.54295957        1.02485863        2.67655623
 C            0.73741490        1.17583678        4.16557798
 C            1.42978804        1.85572857        3.09842570
 C           -0.60356472       -0.73887089        4.24322997
 C           -0.59130281        0.67249757        3.88809945
 C           -1.38376999       -1.60097993        3.49511197
 C            0.62864606       -2.89849059        2.83309118
 C           -0.76310809       -2.74802171        2.83593127
 C            1.24418857       -3.47360106        1.72144272
 C            2.81820772       -1.61842441        1.71540232
 C            2.47425248       -2.87288845        1.23589019
 C            2.69988348        0.79266195        1.30752532
 C            2.84065996       -0.52113338        0.82705857
 C            2.25450434        1.79085828        0.43545472
 C            0.68343409        2.43899490        2.09458247
 C            1.36325992        2.74881434        0.93488530
 C           -1.23094993        1.09623649        2.72038768
 C           -0.68256970        2.15030105        1.98180425
 C           -2.34249298       -1.03919190        2.56451883
 C           -2.19698037        0.28002425        2.13067038
 C           -1.51800230       -3.00089106        1.61485626
 C           -2.63733599       -2.07628832        1.59499071
 C            0.44939941       -3.80719445        0.55069303
 C           -0.83119325       -3.28525539        0.43853058
 C            2.57805799       -3.14816677       -0.17331851
 C            1.33362526       -3.77912677       -0.59331369
 C            2.85286104       -0.74065831       -0.56198083
 C            2.82105312       -2.04222955       -1.06799676
 C            2.37392035        1.60187623       -0.94289045
 C            2.60471826        0.31907229       -1.44233269
 C            1.98510655        2.62396377       -1.81160076
 C            0.72929252        3.62004326        0.07292046
 C            1.20081420        3.72065781       -1.28653630
 C           -1.36224578        2.62445457        0.85247321
 C           -0.72025858        3.57973694        0.05621919
 C           -2.77634866        0.66039070        0.91863804
 C           -2.41291390        1.86995742        0.31782637
 C           -3.17122489       -1.69874555        0.37897529
 C           -3.46620376       -0.29595515        0.17245050
 C           -1.26881910       -2.73439213       -0.77509375
 C           -2.53900246       -2.17175027       -0.84105814
 C            0.89599940       -3.10068627       -1.79380778
 C            2.02775294       -2.31586402       -2.24952837
 C           -0.37526356       -2.53079217       -1.83566886
 C            2.30418406        0.03420797       -2.77771447
 C            1.78562147       -1.27505737       -3.12052690
 C            1.44254392        2.29317387       -3.11788660
 C            1.55134053        0.98978763       -3.57153037
 C            0.04234957        3.90550848       -2.14261798
 C           -1.14989179        3.81428464       -1.31086848
 C            0.18886284        3.01571206       -3.28171675
 C           -2.95158229        2.20283544       -0.92965243
 C           -2.26277062        3.14658774       -1.79381661
 C           -3.60039676       -0.12287801       -1.25701182
 C           -2.83708645       -1.19946888       -1.87823198
 C           -3.50087420        1.15470895       -1.77663812
 C           -0.63260348       -1.54253031       -2.79481258
 C            0.42366545       -1.05935447       -3.56901883
 C            0.37458057        0.29667975       -4.08105533
 C           -1.86979261       -0.89111020       -2.83085237
 C           -0.93259979        2.35668578       -3.77245848
 C           -2.21976185        2.57723762       -3.13170407
 C           -2.92331126        1.30810122       -3.09714690
 C           -0.84818330        0.94707906       -4.12359299
 C           -2.01830865        0.27902145       -3.57837192
