   70
C70 / DATE: 7/ 1/2024 / Origin: Program Fullerene / C70 from database
 C            1.22327293       -0.14261986        4.38163511
 C            2.45108845       -0.46143491        3.69660002
 C            2.36369787       -1.84012144        3.23583686
 C            0.37682619       -1.32603413        4.36455146
 C            1.05676831       -2.35401545        3.59986698
 C           -0.95706374       -0.91279100        3.96127404
 C            0.43358065        0.96920142        3.89711114
 C           -0.95272589        0.53669937        3.83923303
 C            0.91770522        1.79868577        2.88743135
 C            2.84497617        0.35280506        2.56334706
 C            2.07778009        1.45465227        2.17257717
 C            2.76728015       -1.86229161        1.83924203
 C            3.31562176       -0.55530168        1.53763664
 C            1.95242191       -2.48346840        0.89336626
 C            0.33632672       -3.07299351        2.65762562
 C            0.89661662       -3.27425315        1.32842481
 C           -1.66217334       -1.66624292        3.02815041
 C           -1.08802203       -2.81854916        2.49307540
 C           -2.72815414       -1.06653383        2.36829223
 C           -1.81001247        1.14807083        2.92665484
 C           -2.81238201        0.38648839        2.32960003
 C            0.01066678        2.68527260        2.32560051
 C           -1.40278397        2.33667520        2.32367183
 C            0.31590997        3.32923429        1.06723670
 C            2.28928925        1.97038525        0.88400470
 C            1.49395893        3.02169359        0.40699306
 C            3.27519130       -0.11785560        0.22976775
 C            3.09819962        1.24007720        0.00139259
 C            1.98168892       -2.02813772       -0.42962406
 C            2.88038103       -1.01233682       -0.75898815
 C            0.96671841       -2.38826574       -1.33533281
 C           -0.20812303       -3.53422424        0.43347498
 C           -1.44402511       -3.24817584        1.15018915
 C           -0.11838927       -3.16927833       -0.90163470
 C           -3.17436734       -1.57963304        1.08138953
 C           -2.48785899       -2.62614198        0.46924310
 C           -3.34228674        0.76912782        1.02950762
 C           -3.62521600       -0.44785674        0.28395834
 C           -1.95679782        2.72989373        1.03693761
 C           -0.91496537        3.42619167        0.29707417
 C           -2.82500283        1.87672590        0.36693102
 C           -0.85653548        3.31833494       -1.09129806
 C            1.59129349        3.41793780       -0.92211269
 C            0.37704828        3.47483527       -1.72262307
 C            3.35936258        1.71562630       -1.27672672
 C            2.64518991        2.87747984       -1.75218397
 C            3.01818162       -0.62404062       -2.08207742
 C            3.40512177        0.75197910       -2.36322144
 C            0.99041423       -1.88648611       -2.64996216
 C            1.98717207       -0.99312709       -3.02784097
 C           -0.18509245       -1.84930760       -3.39470218
 C           -1.31228976       -3.14589081       -1.61213274
 C           -2.52230898       -2.73565834       -0.91877110
 C           -1.34453625       -2.57438671       -2.93655832
 C           -3.44650166       -0.46824367       -1.09458543
 C           -3.13200025       -1.67691364       -1.70762803
 C           -2.48954475       -1.68047521       -3.01017464
 C           -2.89750642        1.93308442       -1.02013651
 C           -1.88324231        2.66196260       -1.76841826
 C           -3.23594392        0.73360976       -1.77155578
 C           -0.63539984       -0.56856160       -3.91717198
 C           -2.04013185       -0.42441713       -3.57919856
 C           -1.57473946        1.89308153       -2.96545901
 C           -2.47822112        0.75986224       -3.01625702
 C            0.63976542        2.75698853       -2.96005120
 C            2.07136430        2.55117312       -3.04893663
 C            2.55713495        1.24786699       -3.43431420
 C            1.59052431        0.21462939       -3.73590065
 C           -0.24617471        1.75774891       -3.36032260
 C            0.23197910        0.51798456       -3.82300406
