   70
C70 / DATE: 7/ 1/2024 / Origin: Program Fullerene / C70 from database
 C            1.58322546       -0.04103984        4.68697627
 C            0.77226955       -1.21897461        4.49131966
 C            1.56306085       -2.14229198        3.70227230
 C            2.68227854       -0.12160910        3.73542123
 C            2.49790088       -1.32078109        2.95212255
 C            2.72448141        1.13083814        3.03592509
 C            0.77450838        1.10263910        4.31569521
 C            1.61441863        1.94407058        3.50865623
 C           -0.51375262       -0.80611440        3.94718060
 C           -0.44824589        0.62351997        3.71012434
 C           -1.08397530       -1.63345302        2.98865484
 C            0.86420528       -3.09645734        3.00126976
 C           -0.57454906       -2.92754190        2.92118116
 C            1.26455784       -3.35298460        1.63721530
 C            2.35892090       -1.22298668        1.55847072
 C            1.75789000       -2.28809902        0.87786464
 C            2.95930514        1.13236443        1.66487879
 C            2.54129870        0.01463122        0.91521040
 C            2.88470587        2.38878580        1.08219545
 C            1.01883412        2.74015260        2.55070774
 C            1.92586801        3.30590972        1.67661423
 C           -0.79682745        1.12602051        2.46025259
 C           -0.21834035        2.32413079        2.01577684
 C           -1.64382459       -1.06669295        1.83237137
 C           -1.43945321        0.29316931        1.54284719
 C           -2.20413382       -1.90556317        0.85637425
 C           -1.00666191       -3.79490047        1.85762862
 C            0.19253063       -4.16180398        1.11012417
 C           -1.94602061       -3.27749023        0.89270621
 C           -0.13780129       -4.03023223       -0.28306491
 C           -1.58511174       -3.93965137       -0.33997787
 C            1.33681665       -2.13090541       -0.45207795
 C            0.60190917       -3.15727524       -1.07364652
 C            2.07616902        0.18393564       -0.40368960
 C            1.48146794       -0.88564674       -1.08322565
 C            2.72655797        2.50322882       -0.34570245
 C            2.18995066        1.42681385       -1.04428143
 C            1.41863138        4.14923709        0.63598793
 C            2.17977169        3.82941189       -0.55624464
 C           -0.65502285        2.87793314        0.80184620
 C            0.02670673        3.98957062        0.29432864
 C           -1.83949315        0.81245539        0.31041514
 C           -1.48779267        2.12596950       -0.04698871
 C           -2.66558752       -1.36161769       -0.34362278
 C           -2.59348966        0.01608424       -0.55451210
 C           -2.13839304       -3.46282642       -1.50793416
 C           -2.87804826       -2.21493145       -1.43311777
 C            0.14317977       -2.98483562       -2.37300977
 C           -1.24588165       -3.32883359       -2.64229596
 C            1.03025730       -0.70104158       -2.39615308
 C            0.42807505       -1.75326868       -3.07687525
 C            1.52922207        1.65387314       -2.26043770
 C            0.93286765        0.58574615       -2.92613941
 C            1.28676017        4.02834958       -1.66633511
 C           -0.04062201        4.28762623       -1.11509133
 C            1.11872746        2.94562949       -2.60634319
 C           -1.82038597        2.62442839       -1.31958949
 C           -0.97359365        3.54775902       -1.92664151
 C           -0.22773643        3.12126899       -3.09706816
 C           -3.04461892        0.54055815       -1.76019132
 C           -2.59040512        1.85047209       -2.18024010
 C           -2.89667589       -1.67278258       -2.77834414
 C           -1.80289215       -2.30738876       -3.50148901
 C           -0.70059347       -1.48221740       -3.95737801
 C           -3.07972572       -0.31115834       -2.94119903
 C           -0.02370287        0.85640877       -3.91221574
 C           -0.76775911        2.10256806       -3.85096203
 C           -2.13800926        1.73209251       -3.55875697
 C           -0.97812902       -0.16810246       -4.28782877
 C           -2.30007464        0.35384703       -3.96794405
