   70
C70 / DATE: 7/ 1/2024 / Origin: Program Fullerene / C70 from database
 C            1.68831959       -0.19526964        5.03853029
 C            0.82396182       -1.35631579        5.14720715
 C            1.29632484       -2.34050178        4.19587752
 C            2.61750097       -0.42510485        3.94391914
 C            2.36473226       -1.74362765        3.40784218
 C            2.52727347        0.70317361        3.04357831
 C            0.85908758        0.93239631        4.66356535
 C            1.50932803        1.60650474        3.55240477
 C           -0.51302347       -0.96589830        4.72672534
 C           -0.49485939        0.45331371        4.45150348
 C            0.13539619       -2.84214082        3.48713236
 C           -0.92814992       -1.86274865        3.66487352
 C            0.34417491       -3.33865335        2.21551865
 C            2.32842330       -1.91847750        2.02567545
 C            1.58849358       -2.99146508        1.54539816
 C            2.56134068        0.47806073        1.67334776
 C            2.56703981       -0.82970701        1.17113894
 C            2.13025211        1.50489211        0.84158206
 C            0.69617810        2.24390809        2.62074496
 C            1.19114523        2.42261294        1.32918275
 C           -1.15411519        0.92522737        3.32622307
 C           -0.68148153        2.10639785        2.77060799
 C           -1.55840968       -1.32938101        2.53588693
 C           -1.84576807        0.03792129        2.48913834
 C           -0.69584212       -3.15069559        1.22834184
 C           -1.56293954       -2.06780542        1.35146324
 C            1.34485511       -3.10077754        0.12478811
 C           -0.06382242       -3.38811808       -0.05119670
 C            2.47266127       -1.00590428       -0.21799760
 C            1.92119710       -2.18487705       -0.74073160
 C            2.33356377        1.38041978       -0.52734820
 C            2.59547971        0.11274745       -1.05294650
 C            1.90627398        2.40984907       -1.35797793
 C            0.43131772        3.17780405        0.43324510
 C            0.84426570        3.28042756       -0.89285362
 C           -1.50320342        2.74347909        1.86164609
 C           -0.88817003        3.47201828        0.76916976
 C           -2.48792499        0.56874636        1.36460643
 C           -2.57412008        1.95877056        1.28196858
 C           -2.09703384       -1.51384498        0.18641098
 C           -2.59316710       -0.20351608        0.19551866
 C           -0.67037041       -2.88163698       -1.18393619
 C           -1.84781571       -2.15274957       -1.03107084
 C            1.45376315       -2.17967110       -2.05418623
 C            0.13816995       -2.61157961       -2.28434418
 C            2.60857302       -0.07909057       -2.43526624
 C            2.07990779       -1.32440391       -2.95155047
 C            1.68361674        2.15887309       -2.76813667
 C            2.16577986        0.98643379       -3.32312781
 C           -0.14224156        3.38365081       -1.96322336
 C            0.32108596        2.57077524       -3.06985741
 C           -1.89172333        3.56946260       -0.27413067
 C           -2.92414345        2.58852883        0.02920283
 C           -1.49029793        3.38493632       -1.65493850
 C           -3.06974559        0.37184244       -0.99809207
 C           -3.09129206        1.75558582       -1.13403175
 C           -2.34352946        2.35876611       -2.22686490
 C           -2.49880272       -1.70758460       -2.17126421
 C           -3.02924322       -0.36103292       -2.18073666
 C           -0.49321718       -2.37333923       -3.50097892
 C           -1.87991251       -1.94768722       -3.46916850
 C            1.48574968       -1.06150237       -4.24708692
 C            1.41379425        0.38002275       -4.40849779
 C            0.17420025       -1.60142330       -4.52974500
 C           -0.54459556        1.67296949       -3.69733789
 C           -1.86246942        1.51955612       -3.22967436
 C           -2.51580134        0.29624337       -3.37349454
 C           -1.97961172       -0.72385681       -4.24734107
 C            0.01283858        0.73446197       -4.56850973
 C           -0.69922214       -0.49039107       -4.87632110
