   70
C70 / DATE: 7/ 1/2024 / Origin: Program Fullerene / C70 from database
 C            1.57044918        0.13383205        4.56888329
 C            0.74823644       -1.06474454        4.55461296
 C            1.41821311       -2.04081311        3.72160643
 C            2.59942014       -0.02002482        3.55455716
 C            2.58654388       -1.39609207        3.13609072
 C            2.39869399        0.99066684        2.54015952
 C            0.73345899        1.24276692        4.16667443
 C            1.35325310        1.87819423        3.01548617
 C           -0.60863092       -0.68248309        4.21898671
 C           -0.62693774        0.75609169        4.01354711
 C           -1.33764497       -1.49583339        3.36449086
 C            0.66585565       -2.89441003        2.91243209
 C           -0.70118193       -2.64670997        2.73479123
 C            1.35227751       -3.57453292        1.90973906
 C            2.88016991       -1.69982447        1.81817298
 C            2.61473290       -3.01017633        1.46413480
 C            2.39392340        0.61022160        1.19771118
 C            2.75698713       -0.69552616        0.83413671
 C            1.72865445        1.42241472        0.27669308
 C            0.50781009        2.44619797        2.07688581
 C            0.89984222        2.45076124        0.73850190
 C           -1.37294025        1.29701542        2.97284493
 C           -0.85543931        2.43100456        2.35246228
 C           -2.22023474       -0.88698348        2.38405755
 C           -2.25297223        0.49195595        2.23803257
 C           -1.30433807       -2.81304542        1.41545881
 C           -2.20107104       -1.69954805        1.18305704
 C            0.64420722       -3.96564755        0.70641149
 C           -0.52787507       -3.29034467        0.37225044
 C            2.82598623       -3.41742793        0.10221685
 C            1.66207308       -4.19604370       -0.29655247
 C            2.76425014       -1.04828467       -0.52588487
 C            3.00410930       -2.38078785       -0.88559130
 C            1.72266694        1.08038803       -1.07384539
 C            2.26441369       -0.15044481       -1.48986022
 C            1.10918823        1.93762568       -1.99449569
 C            0.10610515        3.16380644       -0.16198215
 C            0.25460413        2.95437495       -1.53818319
 C           -1.68349245        3.11893671        1.48829447
 C           -1.07015026        3.73483811        0.33422853
 C           -2.77274187        1.01161357        1.05414727
 C           -2.82340835        2.39459066        0.96946513
 C           -2.20254582       -1.06208351       -0.05363707
 C           -2.64739797        0.25762497       -0.12708591
 C           -0.69926411       -2.76005340       -0.91587932
 C           -1.47174522       -1.60331399       -1.11448935
 C            1.36884616       -3.84690603       -1.66345129
 C            2.39399540       -2.90385829       -2.08304849
 C            0.09226552       -3.22649894       -1.95892005
 C            2.02121191       -0.61516837       -2.79591114
 C            1.75572282       -1.96590497       -2.95976047
 C            0.35674784       -2.34330541       -3.06523108
 C            1.12021343        1.58524787       -3.34018408
 C            1.32768243        0.19966962       -3.67466215
 C            0.03827167        2.01065314       -4.20584782
 C           -0.60889213        3.60759277       -2.43002110
 C           -0.85270611        3.03864282       -3.73519139
 C           -2.17157787        4.02422495       -0.55691748
 C           -3.18503695        3.01389450       -0.28412616
 C           -1.92364552        4.00425677       -1.97481810
 C           -2.75176909        0.87463278       -1.37908893
 C           -2.18459023        2.44823788       -3.67448838
 C           -3.25618862        2.17688680       -1.45788097
 C           -2.85249693        3.04125302       -2.54586975
 C           -1.46165288       -0.94340935       -2.35803838
 C           -0.52211990       -1.31152557       -3.33946770
 C            0.03377973       -0.30084505       -4.10740465
 C           -0.77990952        0.83179477       -4.44116483
 C           -2.15377700        0.27568191       -2.50059499
 C           -1.99048803        1.01500999       -3.68164528
