   70
C70 / DATE: 7/ 1/2024 / Origin: Program Fullerene / C70 from database
 C            1.21678366       -0.12457128        4.31014551
 C            2.41927862       -0.36060284        3.54706212
 C            2.34350641       -1.71066881        3.01580293
 C            0.36849174       -1.30185961        4.17731276
 C            0.98700210       -2.17804833        3.21063244
 C           -0.97775754       -0.83857661        3.92624182
 C            0.39992012        1.02718032        3.98432688
 C           -0.97523969        0.60033896        4.14008583
 C            0.72886134        1.84311310        2.90089683
 C            2.72099092        0.51988365        2.43825464
 C            1.87295121        1.57572772        2.12624341
 C            2.86235451       -1.67828729        1.66028798
 C            3.21403562       -0.30307293        1.35313370
 C            2.21307342       -2.41384862        0.67559210
 C            0.27194826       -2.57497414        2.08806371
 C            0.99051513       -3.02290271        0.98489068
 C           -1.69936021       -1.36113299        2.85434335
 C           -1.06785975       -2.19285289        1.91778620
 C           -2.88166509       -0.72088260        2.50245252
 C           -1.97292771        1.35780751        3.54895165
 C           -3.07560428        0.66083312        2.91101852
 C           -0.24721095        2.72352002        2.41643678
 C           -1.59446930        2.46381936        2.68141344
 C            0.04749462        3.53018285        1.32073541
 C            2.01029721        2.17121430        0.87586457
 C            1.30805964        3.34130101        0.63656299
 C            3.03665329        0.13753586        0.04584222
 C            2.54795930        1.42892201       -0.18989340
 C            2.49787941       -2.10446395       -0.65322207
 C            2.94566253       -0.81636072       -0.96531012
 C            1.99305166       -2.92800354       -1.65389556
 C            0.29837186       -3.70174142       -0.00574701
 C            0.88674846       -3.80517472       -1.32728960
 C           -1.73124529       -2.53612724        0.72842373
 C           -1.11752942       -3.42217252       -0.16056109
 C           -3.38536619       -0.84417911        1.15053169
 C           -2.82156569       -1.77590499        0.29119078
 C           -3.47095707        1.42226980        1.73758526
 C           -2.54079213        2.51098287        1.57669607
 C           -3.62746497        0.49869659        0.64330876
 C           -0.96699820        3.68106714        0.28987736
 C           -2.05391174        2.81929188        0.31245679
 C            1.13465152        3.80870463       -0.71986335
 C           -0.29562100        3.94823670       -0.95628535
 C            2.44362458        1.89012464       -1.51235798
 C            1.67143330        3.01416077       -1.80007675
 C            2.97222037       -0.38588029       -2.28531108
 C            2.72854036        1.01887944       -2.56360684
 C            1.73441423       -2.38003683       -2.97150170
 C            2.31743661       -1.17324138       -3.31947125
 C           -0.16370870       -3.57879439       -2.30566042
 C           -1.39498553       -3.32271417       -1.58613362
 C            0.32016324       -2.58863149       -3.25266453
 C           -3.00393372       -1.56164897       -1.07233756
 C           -2.23429187       -2.31936277       -2.03819710
 C           -3.13100747        0.83090244       -0.61317507
 C           -2.24604218        1.91592018       -0.75494057
 C           -3.11189817       -0.19266710       -1.55104467
 C           -0.62569864        3.13146611       -2.10046914
 C            0.62250054        2.91091595       -2.80239705
 C           -1.51277490        2.06646688       -1.95032875
 C            1.91074918        1.09200349       -3.76294509
 C            1.55588244       -0.26096259       -4.14804004
 C            0.69118022        1.87706609       -3.71842052
 C           -0.48572187       -1.49953550       -3.59361289
 C           -1.77121977       -1.39051380       -3.06186837
 C           -2.29755075       -0.07156591       -2.73888754
 C           -1.48439372        1.03839981       -2.89985062
 C            0.10758463       -0.36382058       -4.14113272
 C           -0.42549874        0.94885044       -3.80395203
