   70
C70 / DATE: 7/ 1/2024 / Origin: Program Fullerene / C70 from database
 C            1.54696484        0.09390998        4.75874177
 C            0.77968865       -1.13835011        4.71104661
 C            1.34868564       -1.97771716        3.67284688
 C            2.63383490       -0.03527120        3.80834102
 C            2.64086332       -1.40507652        3.33006604
 C            2.50870422        1.02837098        2.82405850
 C            0.68157991        1.16079021        4.29186135
 C            1.24017702        1.69097270        3.06599823
 C           -0.61472893       -0.77691920        4.59740367
 C           -0.66804483        0.64228164        4.25334845
 C           -1.44899388       -1.64490604        3.90816008
 C            0.51142065       -2.46206765        2.65985456
 C           -0.86264610       -2.49993583        2.87776845
 C            1.00270771       -2.57874846        1.35567832
 C            3.13460666       -1.62555603        2.05956599
 C            2.37155360       -2.47249551        1.16483815
 C            2.87647693        0.74562322        1.50993463
 C            3.50745200       -0.46772693        1.26625499
 C            2.18275836        1.35328310        0.45636277
 C            0.39615101        1.90518827        1.98711416
 C            0.94654876        1.95783861        0.70985085
 C           -1.51386040        1.04533747        3.22259899
 C           -0.98913174        1.76019931        2.13312536
 C           -2.66808079       -1.09549909        3.35876782
 C           -2.68334387        0.31966485        3.04429550
 C           -1.75315768       -2.49558949        1.73009144
 C           -2.95813453       -1.81178711        2.13058014
 C            0.14117939       -2.42249459        0.25546543
 C           -1.22746209       -2.24097184        0.46591665
 C            0.65360695       -2.33053195       -1.04756250
 C            2.87128723       -2.19855161       -0.15900789
 C            3.58976945       -0.93650233       -0.09340281
 C            2.04369654       -2.38591915       -1.25439362
 C            2.55394160        1.07130071       -0.86767174
 C            3.36629475       -0.04726913       -1.12922140
 C            1.85123591        1.68651595       -1.91641081
 C            0.15104790        2.38509704       -0.34529123
 C            0.68096330        2.40058368       -1.64023377
 C           -1.80906752        2.06402413        1.03893039
 C           -1.21566754        2.59574907       -0.11661964
 C           -3.40988545        0.46104224        1.80887847
 C           -3.52225191       -0.85874344        1.20885772
 C           -3.09553899        1.50400323        0.95523938
 C           -2.00050772       -1.57755912       -0.50268368
 C           -3.20939484       -0.95734038       -0.14035540
 C           -0.19823620       -1.89314787       -2.07712333
 C           -1.43248772       -1.32439554       -1.75814382
 C            0.28018462       -1.76348706       -3.37889436
 C            2.55929688       -1.90227643       -2.44991763
 C            3.28913247       -0.64468644       -2.37829839
 C            1.70429483       -1.84827033       -3.60676150
 C            2.15060923        1.35986306       -3.24424820
 C            2.90729357        0.15774580       -3.50867589
 C            2.11188093       -0.68946389       -4.38144520
 C           -0.23006499       -0.68676488       -4.21066592
 C            1.10139935        1.41273138       -4.24982667
 C            0.91582643        0.05095934       -4.71747931
 C           -0.09196247        2.85738227       -2.70505406
 C           -0.04083064        2.13145515       -3.95809788
 C           -2.03750714        3.02388229       -1.15454009
 C           -1.49165343        3.16356980       -2.48706921
 C           -3.68339294        1.41155373       -0.29704421
 C           -3.67272548        0.09542285       -0.91809615
 C           -3.31917357        2.37736805       -1.30260177
 C           -2.03064274       -0.41894422       -2.64913840
 C           -1.31079336        0.05365201       -3.75185402
 C           -1.30454061        1.42498169       -4.02301157
 C           -2.26158136        2.28852000       -3.36638061
 C           -3.17993042        0.26000976       -2.26428277
 C           -3.29769365        1.67409293       -2.57033735
