   70
C70 / DATE: 7/ 1/2024 / Origin: Program Fullerene / C70 from database
 C            1.46924729       -0.03580440        5.14521888
 C            0.58012267       -1.17909522        5.23779986
 C            1.14737829       -2.24080710        4.43103884
 C            2.53039448       -0.36308926        4.20563008
 C            2.32856784       -1.72379047        3.75631052
 C            2.57950731        0.68645372        3.20606324
 C            0.71376310        1.06001718        4.57155555
 C            1.51396360        1.62736336        3.50532874
 C           -0.68942043       -0.81215981        4.63062427
 C           -0.60915455        0.57645426        4.22610338
 C            0.07857625       -2.78006108        3.61146588
 C           -1.00132127       -1.80189484        3.61658554
 C            0.43338216       -3.35181812        2.40154962
 C            2.48529596       -2.00989842        2.40346495
 C            1.76419503       -3.08241288        1.88137774
 C            2.78868728        0.33954603        1.87069949
 C            2.94189127       -1.01104823        1.53283050
 C            2.41412111        1.26042638        0.88066092
 C            0.85238843        2.18553274        2.42486380
 C            1.56531904        2.31041956        1.24252648
 C           -1.11432748        0.93765098        2.98262946
 C           -0.53145867        2.01855189        2.32745441
 C           -1.52876543       -1.36963980        2.39914339
 C           -1.78902425       -0.00808951        2.20858744
 C           -0.47202758       -3.21736505        1.27867151
 C           -1.43023751       -2.20441268        1.28532501
 C            1.71364554       -3.28091250        0.44423054
 C            0.31488765       -3.42186686        0.07519654
 C            3.18300046       -1.34322806        0.20364450
 C            2.54228546       -2.52205509       -0.36199960
 C            2.60351877        0.94249303       -0.47059667
 C            3.13411708       -0.29988529       -0.80477128
 C            2.04163727        1.74161097       -1.47342529
 C            1.00119291        3.11025297        0.26471434
 C            1.32632684        2.87782392       -1.12553334
 C           -1.16849439        2.51114859        1.19118158
 C           -0.42791492        3.33269737        0.34494260
 C           -2.32500571        0.41531539        0.99259271
 C           -2.21846310        1.76485897        0.65325300
 C           -1.93657015       -1.76933323        0.06185022
 C           -2.55846103       -0.52284404       -0.01499102
 C           -0.14742090       -2.84903441       -1.10159649
 C           -1.44542575       -2.35448128       -1.10397997
 C            2.09308819       -2.17774399       -1.69866328
 C            2.74156620       -0.93180409       -2.05166351
 C            0.75783052       -2.36793021       -2.05358649
 C            1.92427560        1.25235467       -2.77303495
 C            2.16865766       -0.15447550       -3.04096314
 C            0.79642112        1.66640128       -3.59888062
 C            0.16926103        3.27124068       -1.91881648
 C           -0.90943890        3.60033613       -0.99492851
 C           -0.11819378        2.59712426       -3.10558945
 C           -2.85628710        2.21816310       -0.49710769
 C           -2.20507745        3.23196691       -1.31467430
 C           -3.10497172       -0.10549038       -1.23277626
 C           -3.43650553        1.24013150       -1.39863413
 C           -2.00717845       -2.00447798       -2.31790189
 C           -2.99685632       -0.94703304       -2.34201748
 C            0.25747078       -1.70418816       -3.17824503
 C            1.00190257       -0.66416717       -3.74228921
 C            0.32646812        0.48906625       -4.31786527
 C           -1.11010673       -1.78233235       -3.43618355
 C           -2.98918923       -0.40225321       -3.69005758
 C           -1.01044391        0.39019827       -4.67461993
 C           -1.74037504       -0.81017116       -4.31456438
 C           -1.42293254        2.61359833       -3.60003186
 C           -2.51412182        2.94832925       -2.70201428
 C           -3.45168590        1.84037702       -2.72368949
 C           -1.88597556        1.52452944       -4.44287320
 C           -3.13152175        1.02466046       -3.87654991
