   70
C70 / DATE: 7/ 1/2024 / Origin: Program Fullerene / C70 from database
 C            1.54900125        0.08499850        4.73006841
 C            0.75280611       -1.11168581        4.52968972
 C            1.39346250       -1.91096128        3.49839883
 C            2.66450938        0.02982839        3.80334166
 C            2.67389200       -1.28838566        3.19962241
 C            2.58860666        1.18675408        2.92494450
 C            0.72633914        1.22101825        4.36082121
 C            1.40275948        1.93811936        3.29635899
 C           -0.62181262       -0.69837366        4.32276159
 C           -0.62104739        0.74136717        4.10963498
 C           -1.41430994       -1.48086676        3.50244762
 C            0.60727475       -2.42180954        2.46127467
 C           -0.77238853       -2.46084904        2.63463449
 C            1.14891850       -2.55854245        1.17728528
 C            3.17452244       -1.40022309        1.91695332
 C            2.49558231       -2.27625054        0.98393492
 C            2.88907615        1.01625768        1.57100686
 C            3.47806755       -0.18111837        1.18171417
 C            2.22331678        1.79560146        0.61293729
 C            0.63345734        2.47728786        2.28136086
 C            1.23020359        2.68000766        1.04280132
 C           -1.31388420        1.27420192        3.02231701
 C           -0.75626308        2.36041985        2.35009852
 C           -2.43816434       -0.83466290        2.70733781
 C           -2.30773455        0.51674806        2.39049319
 C           -1.63331517       -2.64336916        1.48365558
 C           -2.78523304       -1.77517523        1.66326344
 C            0.31296171       -2.67289208        0.05661140
 C           -1.07582305       -2.76356647        0.21665980
 C            0.86670797       -2.66026307       -1.23407448
 C            2.94844587       -1.88450750       -0.33193881
 C            3.49014235       -0.53801017       -0.21607923
 C            2.16181964       -2.17228607       -1.43722653
 C            2.38096764        1.52494523       -0.76133793
 C            3.11526970        0.39584689       -1.16930851
 C            1.70079844        2.31112639       -1.71264433
 C            0.56862738        3.47824476        0.12574706
 C            0.75092285        3.23226161       -1.28648500
 C           -1.52286675        3.01444397        1.39775609
 C           -0.83994985        3.75073240        0.34889191
 C           -2.93675403        1.01486111        1.24114598
 C           -2.62830196        2.29721052        0.79007134
 C           -3.43344583       -1.30123642        0.53839096
 C           -3.56861059        0.13623063        0.35854086
 C           -1.91178591       -2.60637246       -0.88811653
 C           -3.08726007       -1.86603743       -0.75348359
 C            0.03806006       -2.86477309       -2.33678177
 C           -1.40136202       -2.82508078       -2.15945255
 C            0.34776468       -2.21596814       -3.60295738
 C            2.44375301       -1.45696893       -2.59820076
 C            2.95379084       -0.10256113       -2.45646607
 C            1.51534054       -1.47674907       -3.71242825
 C            1.57817972        1.86576772       -3.02671678
 C            2.33176946        0.71778863       -3.46335562
 C            1.45261384       -0.12812301       -4.25556963
 C            0.24529568        1.77309559       -3.60320929
 C            0.16451290        0.53916126       -4.36333464
 C           -0.56545937        3.20405171       -1.90878919
 C           -1.54645035        3.51620762       -0.89777840
 C           -2.59297566        2.55511845       -0.64365980
 C           -0.83285649        2.20315300       -2.83520881
 C           -3.51199345        0.40560108       -1.07188950
 C           -3.42528952       -0.87056971       -1.75726691
 C           -2.76878103        1.49221330       -1.52231096
 C           -1.93174612        1.34867365       -2.64187683
 C           -1.97137022       -2.08821069       -3.27559014
 C           -0.88493373       -1.65769642       -4.13276097
 C           -0.99492890       -0.21765739       -4.30426072
 C           -2.80159292       -0.93214325       -2.99120873
 C           -2.10084947        0.24460102       -3.48120540
