   70
C70 / DATE: 7/ 1/2024 / Origin: Program Fullerene / C70 from database
 C            1.35980913       -0.07436868        4.12857223
 C            2.49118793       -0.23948864        3.23233690
 C            2.46434792       -1.61235261        2.75557179
 C            0.49100111       -1.22965139        3.95981932
 C            1.14673882       -2.14611959        3.05937677
 C           -0.82210103       -0.74557141        3.60636667
 C            0.53852165        1.11532102        4.01756608
 C           -0.84290521        0.67895190        3.88402241
 C            0.99915043        2.18002442        3.25429090
 C            2.83123064        0.78143787        2.35024127
 C            2.18843447        2.01650632        2.42844574
 C            3.55359965        0.46479126        1.20620442
 C            3.03419839       -1.92950506        1.52530347
 C            3.69103569       -0.92874617        0.80330272
 C            2.54043908       -3.04840984        0.85675690
 C            0.42304981       -2.73431929        2.03023641
 C            1.16125326       -3.44946694        1.09725833
 C           -1.44294624       -1.21667891        2.45149532
 C           -0.81583740       -2.19116449        1.65273435
 C           -2.53768891       -0.50563812        1.95623158
 C           -1.75000651        1.47121876        3.19617027
 C           -2.70764050        0.82937765        2.31158910
 C            0.05240022        3.00425953        2.51969993
 C           -1.29729747        2.68948238        2.53958480
 C            2.00697693        2.81188977        1.22305886
 C            0.67136994        3.39150868        1.26469191
 C            3.38754544        1.26711955        0.00295934
 C            2.52259870        2.35871030        0.01075170
 C            3.72212304       -0.96318089       -0.65541134
 C            3.37903603        0.36243306       -1.13538984
 C            2.81434492       -3.22028812       -0.55676446
 C            3.23342752       -2.06962306       -1.32956851
 C            0.56819184       -3.80297234       -0.17469833
 C            1.62044554       -3.76519719       -1.17699675
 C           -1.41810866       -2.59743821        0.45263166
 C           -0.68335089       -3.30225229       -0.50554800
 C           -3.22038252       -0.98200934        0.84881863
 C           -2.67810779       -2.10872985        0.11755873
 C           -3.75845617       -0.03194118       -0.11580468
 C           -3.06998763        1.79161901        1.28645995
 C           -2.08199149        2.85797938        1.32904524
 C           -3.51116049        1.33403500        0.04871376
 C           -0.08405851        3.44619481        0.09568494
 C           -1.47283798        3.25943524        0.14214778
 C            1.88776794        2.72332838       -1.17494603
 C            0.59073371        3.37778107       -1.11964175
 C            2.40676768        0.52146755       -2.11848789
 C            1.86013313        1.78528985       -2.28849874
 C            2.26344010       -1.87299799       -2.39566279
 C            1.37871990       -3.02761464       -2.40244967
 C            1.74054358       -0.59806595       -2.62814481
 C           -0.99643887       -3.16200798       -1.85784697
 C            0.06583254       -2.85045535       -2.80201587
 C           -3.03852805       -1.94453108       -1.28140116
 C           -3.68258931       -0.64901319       -1.43304126
 C           -2.16474439       -2.39747686       -2.25859475
 C           -3.40777244        0.13230281       -2.54793694
 C           -3.29333042        2.14255446       -1.06536061
 C           -2.19702243        3.10074324       -1.03897605
 C           -3.35642511        1.57363281       -2.39867521
 C           -0.12455343        3.03453947       -2.33294741
 C            0.58746068        1.93183235       -2.96482041
 C           -1.50835491        3.02621661       -2.31663402
 C           -2.20596148        2.05894789       -3.14355567
 C            0.47278803       -0.46480097       -3.21319295
 C           -0.30493335       -1.60112696       -3.43237541
 C           -1.74913700       -1.50331727       -3.33105382
 C           -2.33584910       -0.25414229       -3.45297570
 C           -0.11007016        0.79720097       -3.36490447
 C           -1.47606959        0.90253080       -3.63137792
