   70
C70 / DATE: 7/ 1/2024 / Origin: Program Fullerene / C70 from database
 C            1.12374632       -0.04528687        4.74692413
 C            2.39704240       -0.42716463        4.17864782
 C            2.22811681       -1.72734481        3.53927640
 C            0.25155480       -1.20144088        4.65006645
 C            0.83154153       -2.09104771        3.65826688
 C           -1.08921458       -0.70296672        4.42559537
 C            0.41317214        1.07487689        4.15712632
 C           -0.99305825        0.72910041        4.18286757
 C            0.93867712        1.69427138        3.02266760
 C            2.99819632        0.44530174        3.19243001
 C            2.30573803        1.57235101        2.74665128
 C            2.81656269       -1.63596478        2.21586443
 C            3.61122841       -0.42342652        2.20577812
 C            2.03676686       -1.93310194        1.10215842
 C            0.10248111       -2.38467112        2.50709757
 C            0.75903489       -2.47765051        1.26802710
 C           -1.85458021       -1.26698959        3.33296050
 C           -1.29082168       -2.26442972        2.54523801
 C           -1.80156551        1.02810369        3.01837051
 C           -2.52724290       -0.17204275        2.65641049
 C            0.07053322        2.20700345        2.04659603
 C           -1.26458504        1.78368586        1.99522356
 C            0.58341587        2.97065551        0.99159115
 C            2.83960430        2.25526954        1.66063457
 C            1.95778687        2.98760261        0.76947566
 C            3.95681418        0.13056084        0.98492902
 C            3.82401595        1.56905227        0.83965288
 C            2.40974870       -1.42555827       -0.14400997
 C            3.42087117       -0.46833521       -0.22829389
 C            1.56313703       -1.61097373       -1.23525382
 C            0.03793955       -2.86858672        0.13822694
 C            0.51472156       -2.52202311       -1.13009730
 C           -2.01522464       -2.64222237        1.42798205
 C           -1.30554039       -3.18807590        0.29349550
 C           -2.89688306       -0.36814625        1.32382076
 C           -2.97044027       -1.68529332        0.89156828
 C           -1.92796030        1.77820785        0.77871764
 C           -2.62970252        0.63458086        0.37748620
 C           -0.25504444        3.32407046       -0.06688262
 C           -1.58384219        2.74408788       -0.14340255
 C            0.28858039        3.32716211       -1.41404123
 C            2.45655497        2.82546720       -0.59112866
 C            3.52352086        1.84706592       -0.55088775
 C            3.30432123        0.58335268       -1.22247141
 C            1.53367230        2.74856642       -1.62741185
 C            1.59064589       -0.69608169       -2.29476458
 C            2.26642906        0.51150582       -2.13852014
 C            1.63548199        1.68997064       -2.53744200
 C            0.69609961       -0.82808209       -3.35589671
 C           -0.24649380       -2.81126535       -2.26210732
 C           -0.09288767       -1.97462053       -3.44155249
 C           -2.20084788       -3.05797417       -0.83672108
 C           -3.10520157       -1.96104396       -0.51907288
 C           -1.66421717       -3.10690369       -2.11044011
 C           -2.84300153        0.38437420       -0.99310828
 C           -3.21186390       -0.90597640       -1.41566201
 C           -1.91765554        2.55144514       -1.53705314
 C           -0.79686395        3.03617905       -2.33107357
 C           -2.58741679        1.39748308       -1.93537377
 C            0.73126219        1.61647044       -3.59203887
 C            0.38582482        0.30392055       -4.11519671
 C           -0.50061673        2.39017791       -3.51993575
 C           -2.63096868        1.12092491       -3.30121810
 C           -0.92127547        0.43524845       -4.73364767
 C           -1.54818031        1.60140165       -4.14058724
 C           -1.38403162       -1.92388024       -4.10828537
 C           -2.36992958       -2.39008041       -3.15563275
 C           -3.16714815       -1.24046438       -2.76589306
 C           -1.86268719       -0.65750622       -4.62243267
 C           -2.94784766       -0.21287588       -3.75428789
