   70
C70 / DATE: 7/ 1/2024 / Origin: Program Fullerene / C70 from database
 C            1.38915632        0.20743371        5.08182299
 C            0.66799255       -1.02448535        4.81658955
 C            1.60570221       -1.94256778        4.21934276
 C            2.60280747        0.17882362        4.28150979
 C            2.79898572       -1.18390685        3.85529246
 C            2.48342951        1.21038486        3.26931868
 C            0.57687389        1.30491364        4.59310613
 C            1.39558897        2.08084550        3.68544108
 C           -0.53199888       -0.68815115        4.07531775
 C           -0.66570946        0.75820405        4.07758056
 C           -0.85139833       -1.37922407        2.90799786
 C            1.19995069       -2.67102831        3.03360720
 C           -0.04588614       -2.42982017        2.44564628
 C            3.04378474       -1.44402488        2.45102384
 C            2.36572050       -2.69201115        2.17611402
 C            2.61459963        0.89002138        1.91208825
 C            2.94190988       -0.41467480        1.50934812
 C            2.14580349        1.80565806        0.96673380
 C            0.74001001        2.80516778        2.70726028
 C            1.32298572        2.84962453        1.38360481
 C           -1.23698817        1.37037149        2.96517682
 C           -0.68072329        2.56050869        2.50198029
 C           -1.75800048       -0.79393960        2.03181098
 C           -1.95849280        0.59022114        2.06516671
 C           -2.20945809       -1.52498710        0.93807081
 C           -0.25367697       -2.91780618        1.14961603
 C           -1.40729315       -2.55577614        0.44409158
 C            2.17631443       -3.04065684        0.85647310
 C            0.84192018       -3.42571118        0.44624923
 C            2.80672409       -0.77382504        0.16359039
 C            2.63999657       -2.11993093       -0.16393343
 C            2.17529403        1.48946322       -0.39004480
 C            2.49361790        0.19216206       -0.79172347
 C            1.51931430        2.33418139       -1.28784526
 C            0.27055559        3.30242263        0.49586376
 C           -0.99066817        3.00531340        1.15120325
 C            0.38281366        3.01598324       -0.85370477
 C           -2.57078811        1.20939160        0.97811579
 C           -1.96736180        2.34062453        0.41734257
 C           -3.22828726       -0.98377802        0.15529084
 C           -3.44632674        0.44988194        0.21230563
 C           -3.39204650       -1.40581975       -1.22506378
 C           -1.54874537       -2.97384356       -0.88121734
 C           -2.48912307       -2.30441925       -1.76308677
 C            0.84859988       -3.37099553       -1.00205078
 C            1.92927185       -2.47210215       -1.38241871
 C           -0.36184883       -3.27300411       -1.66136946
 C            2.20629392       -0.20614388       -2.10046163
 C            1.68498779       -1.48359815       -2.32670820
 C            1.67598304        2.10749580       -2.64940557
 C            2.05353851        0.77233305       -3.07577516
 C            0.63852527        2.58352466       -3.54807429
 C           -0.78787732        2.91975477       -1.60473276
 C           -1.96477350        2.50459617       -0.97156902
 C           -0.67566888        2.84605320       -2.99068567
 C           -3.79971973        0.90450720       -1.11753583
 C           -3.77822644       -0.24700055       -2.00589402
 C           -2.99313852        1.94393060       -1.72217755
 C           -1.64432391        2.07373374       -3.75387528
 C           -2.99368710        0.11260606       -3.17493886
 C           -2.74228902        1.54589741       -3.09492118
 C           -1.78688642       -1.97494966       -2.99871521
 C           -0.43249894       -2.48672301       -2.87921931
 C            0.62923360       -1.65886497       -3.22931587
 C           -1.98719579       -0.74470543       -3.62750445
 C            1.28413648        0.45021179       -4.26086903
 C            0.48980429        1.61221315       -4.61510717
 C           -0.90337089        1.20494180       -4.64688446
 C            0.40285615       -0.69728075       -4.20560085
 C           -0.96060472       -0.22764554       -4.41866401
