   70
C70 / DATE: 7/ 1/2024 / Origin: Program Fullerene / C70 from database
 C            1.19868485       -0.01819150        4.30071357
 C            2.49325913       -0.35266919        3.75724767
 C            2.47206279       -1.75924073        3.39111792
 C            0.37484701       -1.21782665        4.25223320
 C            1.10128973       -2.22486518        3.51318596
 C           -0.93164310       -0.82727494        3.77769249
 C            0.44109406        1.05520695        3.68365013
 C           -0.93956336        0.62171216        3.65166956
 C            0.95125283        1.73379514        2.57672689
 C            2.96828011        0.38797115        2.60996075
 C            2.26834289        1.50011660        2.14767390
 C            3.14177132       -1.89945057        2.10853013
 C            3.47076010       -0.56513968        1.63354158
 C            2.64544478       -2.82390584        1.20679552
 C            0.50243738       -2.83245915        2.41250215
 C            1.33624143       -3.40889490        1.45387052
 C           -1.56033864       -1.58037421        2.79226716
 C           -0.84008739       -2.56632807        2.09885199
 C           -2.69954752       -1.02435525        2.21474483
 C           -1.79255717        1.19400194        2.71962009
 C           -2.84986594        0.42132339        2.24243457
 C            0.05377071        2.42074920        1.74691187
 C           -1.32919982        2.25472958        1.94140132
 C            0.54246966        3.17591192        0.67110859
 C            2.67953024        2.01499904        0.92673403
 C            1.82671674        2.93784605        0.21154174
 C            3.35484189       -0.24504151        0.27928504
 C            3.26503144        1.10324145       -0.04448006
 C            2.71036127       -2.52219298       -0.20869872
 C            2.87773655       -1.20073125       -0.62675805
 C            0.79929262       -3.82587507        0.17100316
 C            1.71829682       -3.35989098       -0.85813075
 C           -1.41765886       -3.18376255        0.98781545
 C           -0.56937263       -3.76100828       -0.04118610
 C           -3.17713925       -1.49185603        0.92479724
 C           -2.54428270       -2.55840330        0.31786536
 C           -3.53968668        0.81716223        1.02556746
 C           -3.51411954       -0.32405206        0.12852667
 C           -2.23615913        2.87544213        1.08909358
 C           -3.29823525        2.07589198        0.50271833
 C           -0.33369177        3.81457012       -0.19764020
 C           -1.75264322        3.77430387        0.06543392
 C           -0.13603838        3.66342182       -1.63324079
 C            2.03606682        2.72460618       -1.21149327
 C            2.80982598        1.50120790       -1.35945347
 C            0.99331351        2.98092655       -2.09899395
 C            2.39201697       -0.81169531       -1.88484726
 C            2.38307423        0.53692072       -2.26009907
 C            1.23112244       -2.97093612       -2.09429795
 C            1.74533868       -1.75067265       -2.68911590
 C           -1.08263744       -3.33543258       -1.33491768
 C           -2.22668254       -2.47397257       -1.09628093
 C           -0.20099289       -3.01206403       -2.35605006
 C           -2.98094995       -0.17468736       -1.15227969
 C           -2.31579410       -1.24898532       -1.75901462
 C           -3.19008029        2.22167237       -0.93685757
 C           -2.42779941        3.43262312       -1.17613673
 C           -1.44248934        3.42845629       -2.23899996
 C           -2.94213567        1.09931963       -1.72829894
 C           -1.56051907        2.47444369       -3.23709280
 C           -2.35030573        1.27519631       -2.97612840
 C            0.91814209        2.23079627       -3.27322885
 C            1.62116243        0.95669052       -3.35064537
 C           -0.36183665        2.06806066       -3.93726482
 C            0.75165296       -1.30711824       -3.64478968
 C           -0.51329028       -1.89433755       -3.23072531
 C           -1.59100207       -1.05681312       -2.93842629
 C           -1.68588138        0.15478890       -3.61315699
 C            0.76605376        0.01389900       -4.05537804
 C           -0.50735906        0.66849987       -4.29072608
