   70
C70 / DATE: 7/ 1/2024 / Origin: Program Fullerene / C70 from database
 C            1.02587797        0.00670250        4.73480246
 C            2.31668261       -0.36290719        4.19745500
 C            2.23548269       -1.75169785        3.77405742
 C            0.18068413       -1.17668155        4.68105607
 C            0.83314132       -2.12472379        3.80235852
 C           -1.15199879       -0.73633982        4.35172248
 C            0.29014431        1.08207753        4.09556400
 C           -1.10313415        0.70795045        4.17332383
 C            0.77150752        1.63677723        2.90834068
 C            2.83773238        0.39141270        3.07868961
 C            2.12011320        1.46873361        2.56351716
 C            2.95973766       -1.87812419        2.52127589
 C            3.43006544       -0.55386035        2.14666691
 C            2.42924196       -2.69420577        1.53823443
 C            0.22122388       -2.52272515        2.61028816
 C            1.02639838       -3.07974618        1.62143154
 C           -1.79140919       -1.28106686        3.17197862
 C           -1.07050257       -2.07939223        2.28171361
 C           -1.95986783        1.02436332        3.05297618
 C           -2.59581765       -0.20661606        2.63027009
 C           -0.13236063        2.18077246        1.97828292
 C           -1.50219287        1.87727117        2.05845682
 C            0.35338520        2.88629307        0.86963986
 C            2.58768631        2.01123833        1.37612916
 C            1.70239630        2.80370443        0.54886418
 C            3.50005276       -0.19225870        0.80082043
 C            3.37656228        1.16357850        0.49622961
 C            2.71025598       -2.38568427        0.15138613
 C            3.25707119       -1.15075229       -0.19283173
 C            0.52363233       -3.20415715        0.26828966
 C            1.61572692       -2.91976148       -0.64211657
 C           -1.54149632       -2.17778846        0.96412607
 C           -0.73454522       -2.72011553       -0.04196607
 C           -2.98782797       -0.29272166        1.30563441
 C           -2.68718285       -1.45902222        0.60607425
 C           -2.28131629        1.96702545        0.90823358
 C           -3.11875704        0.89336325        0.58570896
 C           -0.52858521        3.30387270       -0.12495664
 C           -1.91308102        2.88224698       -0.06601038
 C           -0.10747260        3.23147566       -1.51659352
 C            2.09148684        2.60223277       -0.84004536
 C            3.13414147        1.59062374       -0.86851043
 C            1.10717099        2.62315292       -1.82539637
 C            3.18869985       -0.76287103       -1.52938033
 C            3.13290657        0.64784608       -1.87749036
 C            1.33031043       -2.33143654       -1.86850320
 C            2.27518194       -1.46701370       -2.41686990
 C           -1.03657641       -2.46857750       -1.37924864
 C            0.00138431       -2.25082882       -2.29548109
 C           -3.20468961       -1.60171824       -0.67779882
 C           -2.34761703       -2.14963841       -1.71208544
 C           -3.73393492        0.83201096       -0.66017914
 C           -3.92600882       -0.47862906       -1.25382291
 C           -2.40088708        2.73764761       -1.42748086
 C           -1.28386411        2.97459681       -2.32836372
 C           -3.32556905        1.74411727       -1.71472995
 C           -1.15598175        2.22485440       -3.48776629
 C            1.20316936        1.77061211       -2.93304424
 C            2.20294030        0.79687409       -2.98224806
 C            1.88018117       -0.53903201       -3.46063794
 C            0.14536657        1.68212231       -3.83787440
 C           -0.27134459       -1.68605370       -3.54197787
 C            0.67484355       -0.74085152       -4.11345125
 C           -0.07519539        0.42678368       -4.53608706
 C           -2.63916578       -1.45801319       -2.95667666
 C           -3.58334776       -0.39267155       -2.66163476
 C           -3.21662409        0.98446751       -2.95153595
 C           -2.16540410        1.23171237       -3.82705883
 C           -1.61049373       -1.21631498       -3.85414911
 C           -1.48833365        0.10548502       -4.44959483
