   70
C70 / DATE: 7/ 1/2024 / Origin: Program Fullerene / C70 from database
 C            1.60339319       -0.00762641        4.58533655
 C            0.79707357       -1.19934350        4.39849710
 C            1.35207333       -1.95366456        3.28855104
 C            2.65443442       -0.02370433        3.58406294
 C            2.52190086       -1.23376246        2.81105141
 C            2.60588931        1.22973882        2.87215198
 C            0.75451354        1.13988534        4.31282473
 C            1.38853430        1.91921454        3.27732297
 C           -0.58536305       -0.78031461        4.31411085
 C           -0.58473022        0.65485212        4.07378772
 C           -1.44955365       -1.56027948        3.56482862
 C            0.48044770       -2.51810068        2.35257160
 C           -0.89035517       -2.52788223        2.62551577
 C            0.91944541       -2.68433402        1.03281679
 C            2.72749230       -1.17444015        1.44308897
 C            2.17921070       -2.18916171        0.67945322
 C            2.93717125        1.25155047        1.52093133
 C            3.04703038        0.04106863        0.81604436
 C            2.55719839        2.38926581        0.82683187
 C            0.60801409        2.49626818        2.28133015
 C            1.30403088        3.02658512        1.20138776
 C           -1.30773241        1.14986203        2.99015634
 C           -0.71048731        2.04795910        2.08548918
 C           -2.54639941       -0.90470819        2.87992515
 C           -2.45951529        0.46154719        2.61108196
 C           -1.83791610       -2.66241782        1.52915124
 C           -2.97549035       -1.81131249        1.83019829
 C           -0.00598990       -3.00690267        0.03209494
 C           -1.35454534       -2.72833352        0.22890085
 C            0.43683587       -3.26360471       -1.25783944
 C            2.64731642       -2.33890564       -0.61280704
 C            1.83579962       -3.05807759       -1.56904378
 C            3.17331328        0.05579099       -0.58499337
 C            3.19296542       -1.16503313       -1.26885011
 C            2.65138828        2.41208202       -0.61454056
 C            2.97590119        1.24612497       -1.29879369
 C            0.59970744        3.34793943       -0.02100025
 C            1.56404232        3.24857014       -1.09936864
 C           -1.39133652        2.39098750        0.90704642
 C           -0.68290116        2.85324491       -0.20279968
 C           -3.27338993        1.00153938        1.62564536
 C           -2.71806893        2.01197185        0.74563720
 C           -3.73215267       -1.30544391        0.78713616
 C           -4.08257481        0.10301260        0.81992656
 C           -2.12995534       -2.25001889       -0.83460343
 C           -3.35286645       -1.62752417       -0.57879455
 C           -0.34622303       -2.76248136       -2.37181597
 C           -1.57954091       -2.17110155       -2.11820041
 C            1.92092447       -2.36185587       -2.83947091
 C            2.81105492       -1.22862054       -2.67109003
 C            0.56819397       -2.12458925       -3.30951445
 C            2.75836200        1.21108114       -2.67594113
 C            2.51654749       -0.05472564       -3.34037898
 C            1.10333942        3.06149267       -2.39071097
 C            1.85920893        2.18760708       -3.26935340
 C           -1.15111003        2.59311013       -1.49698751
 C           -0.30854644        2.78026236       -2.59549129
 C           -3.22093849        1.76810513       -0.59534517
 C           -4.07792205        0.59597548       -0.54381721
 C           -3.77656999       -0.52097151       -1.42015385
 C           -2.35843681        1.91560767       -1.67605102
 C           -2.04722095       -1.20621587       -3.00761703
 C           -3.06480527       -0.26205185       -2.57958578
 C           -2.51035750        1.06771021       -2.77433046
 C            0.24151823       -0.88003855       -3.84282283
 C            1.25179314        0.06070035       -4.05598338
 C            0.91525827        1.47225547       -4.11147662
 C           -0.42183122        1.88739453       -3.73719025
 C           -1.09314849       -0.47447589       -3.82849893
 C           -1.43334908        0.94166139       -3.73962524
