   70
C70 / DATE: 7/ 1/2024 / Origin: Program Fullerene / C70 from database
 C            1.58795649       -0.04179462        4.64856755
 C            0.77050750       -1.21064239        4.39208074
 C            1.38138398       -1.96525155        3.31014645
 C            2.67632719       -0.04787124        3.68849642
 C            2.52291782       -1.20593668        2.83228125
 C            2.71103683        1.25415580        3.05714806
 C            0.77112999        1.12877144        4.37727435
 C            1.49795118        1.96379059        3.44509000
 C           -0.59822020       -0.76230904        4.22178216
 C           -0.54952326        0.67384312        3.99544808
 C           -1.42296076       -1.52702079        3.41460379
 C            0.54543581       -2.57015523        2.37912614
 C           -0.82434523       -2.60382832        2.64453330
 C            0.98152249       -2.69800379        1.05892850
 C            2.68786788       -1.02983873        1.46392067
 C            1.97995906       -1.84515821        0.57608600
 C            3.11260501        1.33703826        1.72756579
 C            3.27021538        0.15189693        0.99696427
 C            2.77909145        2.50308977        1.04643178
 C            0.79388454        2.64212688        2.45445878
 C            1.54405408        3.17476524        1.40932150
 C           -1.12653634        1.20233646        2.84234201
 C           -0.55546173        2.32941404        2.23624774
 C           -2.34301372       -0.85431181        2.51671330
 C           -2.11581134        0.47314287        2.17159829
 C           -1.75043369       -2.91473479        1.57174200
 C           -2.68136458       -1.79969447        1.46826840
 C            0.18111759       -3.39486516        0.15943563
 C           -1.25033329       -3.47222641        0.40779161
 C            0.37350849       -3.20793798       -1.26868115
 C            2.19272226       -1.70863168       -0.79995005
 C            1.27549562       -2.24722028       -1.71256587
 C            3.63022767        0.22290934       -0.34460049
 C            3.17323337       -0.82512455       -1.24087075
 C            2.91444442        2.55825666       -0.39647366
 C            3.50602655        1.49011356       -1.05012179
 C            0.89210498        3.60570402        0.18559442
 C            1.68532669        3.12654716       -0.93465036
 C           -1.23728993        2.94666994        1.19155571
 C           -0.48654388        3.55612221        0.10415057
 C           -2.64557399        0.95647246        0.97596321
 C           -2.37750291        2.26939391        0.60167527
 C           -3.01862864       -1.31291904        0.20937183
 C           -3.18373251        0.06654365        0.03877840
 C           -1.92084058       -3.18261722       -0.84356304
 C           -0.93135274       -3.31558291       -1.89785741
 C           -2.84464721       -2.14093575       -0.90520960
 C           -1.15402916       -2.66834708       -3.10185723
 C            1.10237879       -1.66743420       -2.97983600
 C           -0.12333467       -1.79185284       -3.63013019
 C            3.04678762       -0.24335820       -2.55737381
 C            3.09234066        1.20065222       -2.40895168
 C            1.87026610       -0.56364388       -3.33191760
 C            1.06234078        2.52035933       -2.02852293
 C            1.82412150        1.73173384       -2.88053129
 C            1.17775059        0.68069827       -3.63572677
 C           -1.09750302        3.12919813       -1.14004546
 C           -2.41859858        2.63798791       -0.80353576
 C           -0.33241290        2.44627374       -2.08695512
 C           -3.62417645        0.55958150       -1.18683907
 C           -3.05042307        1.79200926       -1.69458864
 C           -3.26343775       -1.70705950       -2.15852085
 C           -2.43798347       -2.01650816       -3.31390726
 C           -3.73530615       -0.34593428       -2.31367041
 C           -0.76837448       -0.57527056       -4.09408893
 C           -0.20884057        0.64716202       -3.72480812
 C           -0.96533904        1.56137794       -2.97293390
 C           -2.35900234        1.44636379       -2.92240618
 C           -2.19955632       -0.77559531       -4.03279198
 C           -3.01160584        0.25311441       -3.42700062
