   70
C70 / DATE: 7/ 1/2024 / Origin: Program Fullerene / C70 from database
 C            1.28091001        0.07437079        5.03575232
 C            0.49056752       -1.11837996        4.79904468
 C            1.34263878       -2.10075006        4.16918211
 C            2.56398394       -0.11221610        4.37824817
 C            2.62779252       -1.47295489        3.90277318
 C            2.71843014        0.95222239        3.41131251
 C            0.60395763        1.18829294        4.38804471
 C            1.53524618        1.79920767        3.47895100
 C           -0.71005898       -0.71493473        4.09984830
 C           -0.64288377        0.71050798        3.84191503
 C           -1.21115062       -1.50840738        3.08181276
 C            0.88658535       -2.71168791        2.93383654
 C           -0.40429868       -2.48667948        2.47989579
 C            2.94150973       -1.69530432        2.50486692
 C            1.96262879       -2.63012009        1.96928279
 C            3.26276804        0.68858389        2.15262939
 C            3.36543618       -0.64009975        1.69642793
 C            3.16394077        1.72529983        1.22729910
 C            1.06346743        2.33632688        2.28899973
 C            2.03643503        2.63418988        1.35147914
 C           -1.05699748        1.16075306        2.58546418
 C           -0.23358632        2.01941853        1.83661642
 C           -2.19487148       -0.93659010        2.29325213
 C           -2.02280147        0.40466222        1.91946703
 C           -2.84718284       -1.79454406        1.42929096
 C           -0.68841505       -2.84184900        1.16222700
 C           -2.02028859       -2.78920160        0.77587859
 C            1.65183080       -2.56211775        0.60983871
 C            0.31404441       -2.67940036        0.19517391
 C            3.43369238       -0.90190265        0.32891777
 C            2.57283030       -1.93698252       -0.22321313
 C            3.38055948        1.48194445       -0.18609729
 C            3.49779202        0.18330836       -0.63304614
 C            1.63729440        3.03700977        0.03145204
 C            2.53594316        2.40598671       -0.91858268
 C           -0.60451288        2.35027950        0.51791258
 C            0.28753765        3.08150216       -0.28044615
 C           -2.49877518        0.84777045        0.68391477
 C           -1.72453548        1.73215361       -0.06969760
 C           -3.73820825       -1.23404473        0.44551248
 C           -3.53259131        0.14660466        0.07075199
 C           -2.35960478       -2.78175780       -0.62976679
 C           -3.59977805       -2.03735977       -0.75183679
 C           -0.03752423       -2.38598728       -1.13606469
 C           -1.35852651       -2.57169571       -1.57272024
 C            2.17682839       -1.52391934       -1.55102596
 C            2.76542845       -0.22564649       -1.82011322
 C            0.88301793       -1.75489985       -1.98252515
 C            2.00538541        2.05227551       -2.15261085
 C            2.01386987        0.70191019       -2.54145541
 C           -0.01363017        3.29919493       -1.61760727
 C            0.96876304        2.86402927       -2.60136090
 C           -2.05849785        1.98930451       -1.41033834
 C           -1.31210432        2.92163269       -2.12326052
 C           -3.69156598        0.21805458       -1.36734905
 C           -3.74525915       -1.14982408       -1.88042043
 C           -2.98213784        1.17427369       -2.08508478
 C           -1.73487531       -2.13402041       -2.84839659
 C           -3.01311692       -1.44522424       -3.01722411
 C            0.42608621       -1.03782234       -3.08236849
 C            0.99054255        0.21685966       -3.36664497
 C           -0.76202648       -1.44362954       -3.67355340
 C            0.25358382        2.48962806       -3.79807336
 C           -1.15181698        2.77039785       -3.55769463
 C            0.34094609        1.11172327       -4.21662617
 C           -2.87313529        0.98493855       -3.46571044
 C           -2.80817572       -0.37289820       -3.96682155
 C           -1.48870962       -0.54286762       -4.54396125
 C           -1.90712244        1.74081233       -4.23139211
 C           -0.95350837        0.78028926       -4.77418220
