   70
C70 / DATE: 7/ 1/2024 / Origin: Program Fullerene / C70 from database
 C            1.62974656       -0.09479387        4.64552799
 C            0.78246937       -1.26936111        4.70338045
 C            1.11081384       -2.12398603        3.57572346
 C            2.53176335       -0.25840346        3.52119743
 C            2.23937001       -1.52249105        2.88168126
 C            2.44008163        0.93402267        2.71008469
 C            0.77266156        1.04307699        4.35622086
 C            1.27397898        1.67302211        3.15858723
 C           -0.58361125       -0.80657275        4.82186972
 C           -0.59628134        0.57859973        4.36100041
 C           -1.58110063       -1.64929816        4.36399115
 C            0.06129164       -2.67096674        2.83423288
 C           -1.20977018       -2.69463776        3.41455110
 C            0.20789701       -2.81130129        1.44358481
 C            2.26354276       -1.57111593        1.49652034
 C            1.44120911       -2.49348996        0.86205974
 C            2.61597141        0.81264550        1.33790356
 C            2.72136971       -0.45954541        0.77394685
 C            2.09587924        1.82125269        0.54263171
 C            0.38004233        2.10197098        2.18666797
 C            0.92023054        2.45297380        0.95828172
 C           -1.44937728        0.94383327        3.31478387
 C           -0.95425733        1.67211465        2.21708141
 C           -2.78497858       -1.03270896        3.85018150
 C           -2.65625958        0.25555395        3.18967885
 C           -2.36405583       -2.95308180        2.58245431
 C           -3.37937134       -1.96782326        2.91535910
 C           -0.91269051       -2.98428925        0.61185615
 C           -2.19185331       -2.93776802        1.14751961
 C           -0.78658188       -2.69536666       -0.74505036
 C            1.62482798       -2.69498482       -0.49793196
 C            0.45330766       -2.88422298       -1.32798132
 C            2.81071019       -0.56015285       -0.61833032
 C            2.50128275       -1.78340223       -1.20880151
 C            2.41245207        1.81814012       -0.81033241
 C            2.77826297        0.60366976       -1.40162352
 C            1.90090034        2.85256869       -1.58970015
 C            0.07107631        2.96863962       -0.00502853
 C            0.65940153        3.46922971       -1.15977604
 C           -1.71394204        1.74370495        1.03794808
 C           -1.22207123        2.44707604       -0.06787673
 C           -3.28256740        0.14316349        1.88476711
 C           -3.68884934       -1.23669136        1.70273003
 C           -3.10991929       -1.96317470        0.59058388
 C           -2.69483854        0.78360882        0.80631396
 C           -1.69157294       -1.79707482       -1.32275697
 C           -2.66700926       -1.23034173       -0.50343057
 C           -2.73283432        0.16127898       -0.44027155
 C           -1.34913341       -1.11031450       -2.49122029
 C            0.73006866       -2.30114181       -2.62484353
 C            2.10508096       -1.82552529       -2.60233603
 C           -0.24062343       -1.52086410       -3.24151311
 C            2.83169055        0.49167880       -2.79396433
 C            2.44450979       -0.76264473       -3.42220367
 C            1.87251352        2.73838346       -3.03568457
 C            2.34360380        1.57608864       -3.63298822
 C           -0.16445530        3.67284549       -2.33229199
 C            0.63969431        3.35910583       -3.50153476
 C           -1.77444291        2.15882931       -1.32033920
 C           -2.28497169        0.88138096       -1.53708923
 C           -1.87076414        0.17474762       -2.66229102
 C           -1.39757319        2.92229068       -2.42159394
 C           -0.21325556        2.65316459       -4.43952398
 C           -1.62600752        0.87771173       -3.83368024
 C           -1.44485966        2.31481042       -3.74317900
 C            0.13983991       -0.79058100       -4.36602961
 C            1.54339711       -0.44222572       -4.51415236
 C            1.62423965        0.98615594       -4.75297227
 C           -0.63991509        0.36614819       -4.76062851
 C            0.28461616        1.44685593       -5.07195137
