   70
C70 / DATE: 7/ 1/2024 / Origin: Program Fullerene / C70 from database
 C            1.35907412       -0.09518895        4.18889437
 C            2.51757045       -0.32696473        3.34686899
 C            2.40396064       -1.66433064        2.78187479
 C            0.53123288       -1.28786163        4.14879344
 C            1.12744108       -2.21910556        3.20729852
 C           -0.84092196       -0.87284573        3.94013460
 C            0.51328739        1.04873824        3.91265242
 C           -0.83437193        0.55705178        3.67540521
 C            1.01230656        2.06533576        3.11496940
 C            2.99988059        0.70052287        2.54395229
 C            2.33786939        1.93408036        2.52662288
 C            3.84299310        0.35549087        1.49398098
 C            2.86337771       -1.89790756        1.48587938
 C            3.71363443       -0.96468976        0.89537334
 C            2.17516156       -2.79318623        0.66846963
 C            0.31596830       -2.86063542        2.27614303
 C            0.88317138       -3.31319757        1.09101532
 C           -1.66346405       -1.68326956        3.17403137
 C           -1.07098236       -2.74876640        2.37434546
 C           -2.70162968       -1.06477558        2.37024404
 C           -1.58296733        1.05201738        2.60746869
 C           -2.67620527        0.30946749        2.14915813
 C            0.14957341        2.66970382        2.11575866
 C           -1.07869611        2.09718520        1.82272259
 C            2.35484631        2.76520455        1.32946674
 C            0.98045941        3.12315222        1.01552981
 C            4.09134366        1.30502741        0.42620153
 C            3.22448498        2.46075807        0.29664711
 C            3.68564613       -0.78956146       -0.54888033
 C            4.06178445        0.57475340       -0.83089508
 C            2.11061541       -2.55018685       -0.76632405
 C            2.66456351       -1.38654413       -1.28207548
 C            0.05730201       -3.47624214       -0.09517831
 C            0.82315147       -3.00766843       -1.24093603
 C           -1.90012584       -2.92580011        1.18972115
 C           -2.98051053       -1.95177973        1.25366402
 C           -1.31014309       -3.21723550       -0.03616837
 C           -3.48932696       -1.40835569        0.07861860
 C           -3.45364548        0.81741307        1.11437711
 C           -3.97583919       -0.10274028        0.11516864
 C           -1.66350097        2.37665664        0.59336344
 C           -2.98158020        1.98947693        0.40661444
 C            0.50911806        2.99245579       -0.29216396
 C           -0.84596263        2.69024252       -0.50499390
 C            2.73717553        2.49443904       -1.06977214
 C            3.25114561        1.32149619       -1.75716898
 C            1.42722740        2.88742871       -1.34435525
 C            1.96759624       -0.65644338       -2.26239328
 C            2.38381541        0.64662388       -2.60297308
 C            0.17297643       -2.30413175       -2.24152584
 C            0.78799518       -1.19007636       -2.82027845
 C           -1.97739076       -2.86753039       -1.20659031
 C           -3.13522276       -1.98828500       -1.13998857
 C           -1.20098321       -2.48611064       -2.37488647
 C           -3.17466568       -1.21313550       -2.37471501
 C           -1.99123811       -1.54940446       -3.15354247
 C           -4.14879494        0.64583542       -1.11671371
 C           -3.53529458        1.95209419       -0.92676076
 C           -3.64349841        0.09376404       -2.35828525
 C           -1.35257032        2.63680263       -1.81227632
 C           -2.65324950        2.19443115       -2.04388026
 C           -2.88165955        1.13934055       -3.02032130
 C            0.95702606        2.61062207       -2.62316475
 C            1.52020468        1.46259364       -3.31712583
 C           -0.46618720        2.61669721       -2.88088518
 C            0.11111369       -0.50018375       -3.82648037
 C           -1.33970494       -0.56853334       -3.88714990
 C           -1.85042645        0.79625699       -3.88509498
 C            0.48173447        0.86361756       -4.11566143
 C           -0.70706910        1.68589658       -3.97182471
