   70
C70 / DATE: 7/ 1/2024 / Origin: Program Fullerene / C70 from database
 C            1.27198722       -0.11139621        4.07401215
 C            2.39991414       -0.31249673        3.18189619
 C            2.32921250       -1.67840320        2.68528215
 C            0.41397000       -1.28173117        3.97841745
 C            1.03160688       -2.21346418        3.06774232
 C           -0.92425964       -0.83151914        3.68702953
 C            0.44357379        1.06711798        3.90642160
 C           -0.92649745        0.62233850        3.72134936
 C            0.91962769        2.11513498        3.13952902
 C            2.78484311        0.70745208        2.31769452
 C            2.15832274        1.95341552        2.38769799
 C            3.52044635        0.37803374        1.18471781
 C            2.83421182       -1.98030873        1.42081004
 C            3.54873723       -1.00414562        0.72545947
 C            2.26287947       -3.03907543        0.71146280
 C            0.26187650       -2.83842954        2.09573307
 C            0.96684166       -3.54708614        1.13318172
 C           -1.66728451       -1.46973085        2.69823385
 C           -1.03063598       -2.35383488        1.80663138
 C           -2.84400082       -0.83627380        2.31261191
 C           -1.77995186        1.29592930        2.84980094
 C           -2.92475086        0.60989703        2.46082265
 C           -0.00913084        2.85203358        2.30345113
 C           -1.27328307        2.32434928        2.03610011
 C            2.05344609        2.77518759        1.19077233
 C            0.76495398        3.44562545        1.22882272
 C            3.46016104        1.23735299        0.01209720
 C            2.55208411        2.29260447       -0.01668987
 C            3.50465253       -0.98351936       -0.72849827
 C            3.63591388        0.39728281       -1.15963072
 C            2.26130437       -3.01007200       -0.74292740
 C            2.63057274       -1.83954289       -1.38983543
 C            0.28218834       -4.04950318       -0.03234012
 C            1.09602904       -3.73637286       -1.19846197
 C           -1.67034447       -2.70879103        0.60242380
 C           -1.05687757       -3.58064955       -0.29492536
 C           -3.47337032       -1.18508695        1.05826344
 C           -2.79328430       -2.00188336        0.16920955
 C           -3.73270912        1.12731377        1.38308755
 C           -4.13949196        0.00543890        0.55505627
 C           -1.95642700        2.73477469        0.87839087
 C           -3.15829531        2.13255840        0.52126410
 C            0.13232599        3.75318715        0.03967383
 C           -1.27687009        3.43650597       -0.11508694
 C            1.94889923        2.66230378       -1.22376321
 C            0.79418606        3.44588180       -1.21589376
 C            3.06009581        0.78365971       -2.35663236
 C            2.33671229        2.04067054       -2.40990934
 C            1.87434657       -1.36047742       -2.46701026
 C            2.28466716       -0.19166079       -3.10327135
 C            0.23342095       -3.11546022       -2.18141280
 C           -1.12982121       -3.29296376       -1.71591661
 C            0.60400327       -1.89497438       -2.74118406
 C           -3.03752902       -1.86108059       -1.19756183
 C           -2.10091537       -2.41357852       -2.15984593
 C           -3.94677130        0.38066363       -0.83427372
 C           -3.34426850        1.70286586       -0.85777164
 C           -3.49082565       -0.58039996       -1.71869999
 C           -1.50338844        3.07495069       -1.50620089
 C           -0.24339596        3.21716944       -2.21138160
 C           -2.35882701        2.01286002       -1.79597330
 C            1.38435608        1.93723505       -3.50180825
 C            1.33577756        0.54290110       -3.91268042
 C            0.02215156        2.39307770       -3.29084671
 C           -0.38084659       -1.11070229       -3.35711513
 C           -1.72199379       -1.33689691       -3.06050892
 C           -2.57440715       -0.19271239       -2.77452553
 C           -2.01383863        1.08414743       -2.78904556
 C           -0.04754570        0.12396428       -3.90039111
 C           -0.86846025        1.27833878       -3.56313048
