   70
C70 / DATE: 7/ 1/2024 / Origin: Program Fullerene / C70 from database
 C            1.49594113       -0.07085920        4.63137609
 C            0.69792178       -1.25724797        4.40862580
 C            1.48065486       -2.15800649        3.58565760
 C            2.63809019       -0.14714340        3.73518132
 C            2.50588340       -1.34899993        2.94457581
 C            2.71233711        1.10670545        3.03540776
 C            0.70045328        1.07456230        4.22606960
 C            1.53123923        1.88697225        3.37494013
 C           -0.60136875       -0.84173233        3.90917992
 C           -0.54496028        0.59165459        3.67600532
 C           -1.21496394       -1.64408713        2.95611440
 C            0.78607088       -3.05917437        2.80280161
 C           -0.65371362       -2.89466388        2.68498284
 C            1.25545463       -3.29612099        1.45577757
 C            2.53034810       -1.25365760        1.54820276
 C            1.96200264       -2.28797288        0.79717955
 C            3.10262483        1.11449850        1.70445580
 C            2.87150604       -0.03897883        0.92473154
 C            3.00305346        2.35561840        1.09663671
 C            0.93966039        2.60128825        2.34045000
 C            1.83133345        3.14874633        1.43085811
 C           -0.96700551        1.08797520        2.44520720
 C           -0.32232157        2.19573036        1.86967171
 C           -2.01551034       -1.04222928        1.98642259
 C           -1.82341942        0.30843324        1.66710018
 C           -2.70933384       -1.86229298        1.10790928
 C           -1.05630313       -3.61730061        1.48753896
 C            0.16453710       -3.96400747        0.76974012
 C           -2.16245467       -3.16771456        0.78031794
 C            0.16776824       -3.96597751       -0.61490889
 C            1.82361842       -2.15710758       -0.58530025
 C            1.16637005       -3.16290612       -1.29459159
 C            2.74933939        0.06773796       -0.47361097
 C            2.06798565       -0.92066443       -1.18707760
 C            3.22341512        2.46105640       -0.32162968
 C            3.03297495        1.27395669       -1.11682849
 C            1.33029546        3.72973106        0.21199921
 C            2.31862958        3.47892171       -0.82195958
 C           -0.79492920        2.68621461        0.64287798
 C           -0.00807230        3.57310691       -0.11306156
 C           -2.36779933        0.84777759        0.49880836
 C           -1.94343935        2.11463583        0.07626797
 C           -3.26823710       -1.29981158       -0.09925573
 C           -3.20605319        0.06703970       -0.31315876
 C           -2.20116117       -3.31711589       -0.66627500
 C           -1.08305802       -3.79490662       -1.33672259
 C           -2.94586165       -2.18786952       -1.20661913
 C            0.65564050       -2.88656552       -2.61954682
 C           -0.75445324       -3.24825008       -2.63804685
 C            1.49940310       -0.60164094       -2.42986015
 C            0.77051335       -1.54244803       -3.13510684
 C            2.24308870        1.65514031       -2.27758323
 C            1.84438929        3.04622092       -2.12158895
 C            1.33823810        0.73045560       -2.78279026
 C           -0.35448235        3.83794045       -1.43385443
 C            0.55708314        3.40680009       -2.48532882
 C           -2.51702978        2.69924140       -1.05137084
 C           -1.69736007        3.55169285       -1.88109879
 C           -3.49853890        0.49051981       -1.60028162
 C           -3.28428978        1.87346856       -1.95634307
 C           -2.60892771       -1.62869516       -2.44239528
 C           -1.49581373       -2.10291415       -3.13777969
 C           -0.52375687       -1.14936413       -3.65482419
 C           -3.04213516       -0.33170039       -2.71012645
 C            0.12428424        1.15192050       -3.34396400
 C           -0.20026285        2.50938620       -3.33229761
 C           -1.58505859        2.90878572       -3.18176145
 C           -2.60546650        1.88902698       -3.24410468
 C           -0.85779597        0.20233828       -3.67116538
 C           -2.20681191        0.52482659       -3.53085251
