   70
C70 / DATE: 7/ 1/2024 / Origin: Program Fullerene / C70 from database
 C            1.45272704        0.07421525        4.86979359
 C            0.68742217       -1.14442343        4.67498905
 C            1.58993748       -2.12804840        4.12455607
 C            2.68451162       -0.05501932        4.10870945
 C            2.82271376       -1.44599695        3.75075179
 C            2.65891432        0.93410667        3.04522546
 C            0.69381530        1.16082751        4.28602935
 C            1.52832889        1.80953392        3.29211007
 C           -0.51247601       -0.80887079        3.92364513
 C           -0.58568796        0.63766394        3.84250247
 C           -0.86033123       -1.55807494        2.79856183
 C            1.15063799       -2.88276400        2.97110051
 C           -0.14255191       -2.72281799        2.48712326
 C            3.09534486       -1.77543610        2.36664553
 C            2.23909996       -2.89240405        2.01109984
 C            2.93026554        0.55808572        1.72783566
 C            3.28852280       -0.76708878        1.42750541
 C            2.51775221        1.41494868        0.69951027
 C            0.88684062        2.36407723        2.19532768
 C            1.55646688        2.39877564        0.97492313
 C           -1.13677974        1.20566887        2.70313575
 C           -0.50315618        2.32491058        2.17124410
 C           -1.69247741       -0.97219126        1.83255747
 C           -1.89803208        0.40990646        1.84476210
 C           -2.15286512       -1.73393798        0.75708198
 C           -0.42643263       -3.37893965        1.30171918
 C           -1.58525978       -2.98470729        0.53220075
 C            1.93040921       -3.10270074        0.66723966
 C            0.66428466       -3.59930971        0.35932307
 C            3.34035995       -1.16723292        0.09908210
 C            2.62727951       -2.37359709       -0.29815635
 C            2.86510007        1.12253523       -0.62248029
 C            3.17825947       -0.18807166       -0.95382122
 C            2.42126733        1.94954771       -1.64753230
 C            0.96990451        3.11227061       -0.07070220
 C            1.54989506        3.06142029       -1.33084191
 C           -1.14957006        3.00989180        1.15944246
 C           -0.35099647        3.54304930        0.06977811
 C           -2.52728900        1.02687591        0.76208505
 C           -2.31696674        2.39251361        0.56353549
 C           -2.87964119       -1.13167707       -0.27549260
 C           -3.06963349        0.25737058       -0.26943823
 C           -3.08135926       -1.86736968       -1.44858303
 C           -1.32574105       -3.40663154       -0.83048375
 C            0.11839055       -3.41986584       -0.97576372
 C           -2.07719691       -2.83434593       -1.83448087
 C            2.02813149       -2.12540885       -1.60396126
 C            2.46462738       -0.82150962       -2.05329495
 C            0.72406967       -2.51982200       -1.84915999
 C            1.89926060        1.32622992       -2.85363714
 C            1.61987588       -0.03619422       -2.82889559
 C            0.74385318        3.33130537       -2.51086631
 C            0.95675303        2.24031364       -3.44991546
 C           -1.22447154        3.64110391       -1.09179874
 C           -2.47372107        2.96827391       -0.76003490
 C           -0.68819007        3.51785730       -2.36604824
 C           -3.61730606        0.90861222       -1.38033512
 C           -3.14634517        2.23781448       -1.72637225
 C           -3.45367635       -1.20101507       -2.67823921
 C           -3.79254459        0.19914719       -2.62936650
 C           -1.37322267       -2.22555120       -2.94585524
 C           -0.06534482       -1.79085352       -2.74231083
 C            0.32087921       -0.49047583       -3.12412158
 C           -2.32858664       -1.35702528       -3.59384545
 C           -0.33634933        1.73270054       -3.83948445
 C           -1.34103602        2.65867154       -3.33975405
 C           -2.61846678        2.17606465       -3.08333724
 C           -2.97605354        0.87541204       -3.62257648
 C           -0.58992112        0.36440234       -3.77965322
 C           -1.90622223       -0.03672587       -3.99049214
