   70
C70 / DATE: 7/ 1/2024 / Origin: Program Fullerene / C70 from database
 C            1.29175044        0.01555363        4.28878681
 C            2.53325622       -0.27457761        3.61644181
 C            2.53385629       -1.69032617        3.29010461
 C            0.47104281       -1.18973402        4.25254617
 C            1.17764722       -2.17839332        3.46850670
 C           -0.85371985       -0.78698163        3.83171973
 C            0.46806505        1.09799703        3.79050438
 C           -0.89729726        0.65514573        3.97894887
 C            0.79923554        1.75307446        2.59850505
 C            2.84699568        0.44757717        2.40273641
 C            1.98399860        1.43410215        1.91635840
 C            3.15588155       -1.84312705        1.98642601
 C            3.40170084       -0.50959709        1.46300665
 C            2.65276311       -2.80881759        1.13070292
 C            0.54218864       -2.78233704        2.38694460
 C            1.34607165       -3.38082181        1.41770802
 C           -1.40941072       -1.35792711        2.68846588
 C           -0.78657295       -2.45412102        2.07946786
 C           -2.42053488       -0.66217098        2.01466729
 C           -1.88965493        1.34207664        3.31283892
 C           -2.82274258        0.57703283        2.50788307
 C           -0.20516787        2.48275319        1.94638502
 C           -1.49440224        2.46374162        2.48456386
 C            0.00362955        2.95555578        0.64107793
 C            2.13197979        1.82644748        0.58691114
 C            1.25904459        2.77208158        0.05097823
 C            3.23085649       -0.25149348        0.10927624
 C            2.93323384        1.05137018       -0.26068477
 C            2.70934076       -2.57630647       -0.29977317
 C            2.93781141       -1.28944155       -0.78460255
 C            0.77047517       -3.81519805        0.15838013
 C            1.67045857       -3.38980425       -0.90474601
 C           -1.40654269       -3.05640956        0.98781852
 C           -0.60205270       -3.72897389       -0.01993898
 C           -2.82800085       -1.07533558        0.74037724
 C           -2.47602567       -2.34941615        0.30552459
 C           -3.38216716       -0.15982418       -0.16778121
 C           -3.44587054        1.52464704        1.61111121
 C           -2.62638074        2.72878053        1.62710453
 C           -3.64205810        1.14451797        0.22943556
 C           -1.08117251        3.41084449       -0.13391058
 C           -2.37271944        3.10381892        0.25954820
 C           -3.16088668        2.23736062       -0.60089508
 C           -0.90926270        3.61030877       -1.49501615
 C            1.52823479        3.30829468       -1.20596934
 C            0.42478773        3.74725699       -2.02764640
 C            3.02949954        1.36930771       -1.60318711
 C            2.44501100        2.60498705       -2.07903193
 C            2.56705732       -0.97980101       -2.10072105
 C            2.72650257        0.32613253       -2.56301317
 C            1.15566311       -3.00802725       -2.13447322
 C            1.67061104       -1.80932096       -2.77633481
 C           -1.14090898       -3.38981299       -1.32664505
 C           -2.35593710       -2.62040902       -1.11755785
 C           -0.27941360       -3.05681265       -2.36717838
 C           -3.29082748       -0.39789257       -1.53454898
 C           -2.71389657       -1.63516133       -2.02551428
 C           -2.68767595        1.96449914       -1.88684723
 C           -1.68012789        2.77963875       -2.40905255
 C           -2.86140562        0.68171867       -2.41148003
 C            0.47782342        3.00397241       -3.27720384
 C            1.74093913        2.30887160       -3.31691248
 C            1.73540489        0.86931804       -3.47760029
 C           -0.74375068        2.23045689       -3.37611221
 C            0.58575218       -1.20869943       -3.53845856
 C           -0.62124546       -1.97154426       -3.27405460
 C           -1.82589067       -1.30395087       -3.13009643
 C           -1.86614223        0.13446141       -3.32243232
 C            0.53667456        0.17898902       -3.65394732
 C           -0.69537980        0.84987520       -3.55839461
