   70
C70 / DATE: 7/ 1/2024 / Origin: Program Fullerene / C70 from database
 C            1.30781168        0.17725806        5.08793110
 C            0.52544384       -1.00300529        4.75886343
 C            1.40672354       -1.94303052        4.10808531
 C            2.55967723        0.08676928        4.35753554
 C            2.68572789       -1.27791620        3.89773770
 C            2.57970774        1.15486452        3.36998548
 C            0.59229094        1.33461740        4.58407193
 C            1.47448172        2.04792841        3.68238209
 C           -0.65827221       -0.56605520        4.04705048
 C           -0.68740395        0.88420408        4.06804142
 C           -1.04932440       -1.20767869        2.87494031
 C            0.99858399       -2.50953047        2.83442313
 C           -0.22143393       -2.16036286        2.26765083
 C            3.05491189       -1.49841045        2.51710992
 C            2.16553150       -2.51280467        1.98047914
 C            2.86644239        0.85515108        2.03335992
 C            3.36531078       -0.41511052        1.70131924
 C            2.40570464        1.71709706        1.02435310
 C            0.89073939        2.76341344        2.65106559
 C            1.50920495        2.73262692        1.33991512
 C           -1.22296715        1.53757640        2.96247757
 C           -0.54292723        2.63383176        2.43404652
 C           -1.99504509       -0.56800148        2.08187576
 C           -2.07666063        0.82807660        2.12059087
 C           -2.48996720       -1.23905046        0.96648941
 C           -0.41464737       -2.43752348        0.91550844
 C           -1.66630675       -2.18728194        0.35635887
 C            1.98983201       -2.54184109        0.60035448
 C            0.69520678       -2.62238182        0.07585520
 C            3.59284130       -0.71725235        0.36698415
 C            2.96816626       -1.92006864       -0.16383816
 C            2.60699015        1.39808173       -0.31892577
 C            3.41398790        0.31334099       -0.62908648
 C            1.74697111        1.91881898       -1.29607756
 C            0.48356358        3.08382062        0.37440686
 C           -0.79701327        3.02066043        1.05561892
 C            0.57669990        2.57415548       -0.91525647
 C           -2.63785256        1.48976175        1.03315987
 C           -1.86750071        2.45474606        0.37921837
 C           -3.51389184       -0.63008172        0.24537102
 C           -3.61684533        0.81566389        0.31297224
 C           -3.78886127       -1.03631389       -1.12154469
 C           -1.90297418       -2.59093075       -0.95306823
 C           -2.95837001       -1.96637863       -1.73129171
 C            0.51621720       -2.61001742       -1.31385532
 C           -0.76458755       -2.80778815       -1.82589553
 C            2.73181228       -1.70103390       -1.57523872
 C            3.23017634       -0.37020726       -1.89337571
 C            1.53702650       -2.13061943       -2.14600568
 C            1.89317747        1.52896748       -2.62389897
 C            2.63947467        0.31928990       -2.93680873
 C            0.73809315        1.58114220       -3.50462283
 C           -0.59299806        2.39298338       -1.66375660
 C           -1.83547952        2.46155430       -1.01378739
 C           -0.50042943        1.96729024       -2.99714264
 C           -3.96578756        1.29840820       -1.00901722
 C           -4.21691971        0.14286391       -1.85332124
 C           -3.00635337        2.14112545       -1.69022581
 C           -1.63945132        1.53044392       -3.67154189
 C           -3.63723799        0.42023790       -3.15298393
 C           -2.93976260        1.69644333       -3.06328761
 C           -2.44552191       -1.73263800       -3.07619570
 C           -1.10966879       -2.30512318       -3.14602502
 C           -2.71799406       -0.53896939       -3.73904122
 C           -1.62431722        0.22431545       -4.31231687
 C            1.23809180       -1.67786225       -3.43086665
 C            1.85267762       -0.44376158       -3.88634959
 C            0.79655709        0.41856939       -4.37505454
 C           -0.13188039       -1.68651050       -3.91166002
 C           -0.39920267       -0.39055782       -4.52622483
