   70
C70 / DATE: 7/ 1/2024 / Origin: Program Fullerene / C70 from database
 C            1.25387264       -0.09359121        4.36340191
 C            2.50818692       -0.39061208        3.71773945
 C            2.43475321       -1.75630702        3.21834604
 C            0.41195809       -1.27646689        4.25136061
 C            1.04912980       -2.16680689        3.30942338
 C           -0.92761393       -0.81362761        3.96336219
 C            0.46923482        1.01983109        3.87158978
 C           -0.90556099        0.63454524        4.10114287
 C            0.80088937        1.62469937        2.65608639
 C            2.92340212        0.43532429        2.60549678
 C            2.04348082        1.37428862        2.05594751
 C            3.07473966       -1.77059174        1.91245988
 C            3.64446023       -0.45008610        1.71326846
 C            2.42419511       -2.38223126        0.84253254
 C            0.38778319       -2.49988881        2.13491867
 C            1.14468409       -2.91904471        1.04408176
 C           -1.63470171       -1.37065759        2.89893510
 C           -0.95519676       -2.14132042        1.94238976
 C           -2.83554578       -0.75632157        2.54952608
 C           -1.89999735        1.35810420        3.47160486
 C           -3.04273628        0.61958557        2.96989593
 C           -0.20529709        2.27282718        1.92937571
 C           -1.50987030        2.29489889        2.42786855
 C            0.02728291        2.66229579        0.60759672
 C            2.28744379        1.82895192        0.75893754
 C            1.32550484        2.58671704        0.09134941
 C            3.86878556       -0.01929339        0.41964944
 C            3.34350256        1.27454664        0.03189166
 C            2.86121823       -2.09041680       -0.45503732
 C            3.59019436       -0.92568488       -0.68331056
 C            2.24640569       -2.70186478       -1.54178379
 C            0.48615066       -3.54106084       -0.00442790
 C            1.12515323       -3.58522556       -1.30204878
 C           -1.56044034       -2.40516226        0.70712857
 C           -0.91949115       -3.23869523       -0.20310608
 C           -3.34174659       -0.87962778        1.19285176
 C           -2.59529492       -1.58770891        0.25809294
 C           -3.57585127        1.35536307        1.84295452
 C           -2.61999672        2.39399452        1.49805198
 C           -3.94226140        0.39346020        0.82207153
 C           -1.05944361        2.98425692       -0.22278747
 C           -2.34928549        2.61759995        0.15589387
 C           -0.84776868        3.34138180       -1.55022184
 C            1.58913157        2.99917714       -1.21381595
 C            0.50080634        3.44024559       -2.05725984
 C            3.29478879        1.28078042       -1.41770899
 C            3.26874226       -0.10931793       -1.84555966
 C            2.46407373        2.18994567       -2.04232460
 C            1.94172388       -1.90179047       -2.72031061
 C            2.28411744       -0.54870838       -2.73018387
 C            0.11463170       -3.31529159       -2.30844192
 C           -1.13187890       -3.02057281       -1.62277519
 C            0.65171410       -2.33393116       -3.23273492
 C           -2.69859115       -1.27310003       -1.10240204
 C           -1.88461688       -1.92480783       -2.03160192
 C           -3.86840261        0.80052285       -0.49873589
 C           -3.20154181        2.05766423       -0.79722906
 C           -3.41943899       -0.14814755       -1.49799823
 C           -1.66222658        2.71938087       -2.57955453
 C           -2.78534428        2.00207926       -2.18969298
 C           -2.95964862        0.62633044       -2.63735413
 C            0.56739784        2.67852173       -3.29706113
 C            1.67616555        1.74732383       -3.17580974
 C            1.45299999        0.38350507       -3.36380093
 C           -0.76051934        2.16370987       -3.57606684
 C           -0.20997068       -1.38960046       -3.76324364
 C           -1.56313017       -1.29340752       -3.23613124
 C           -2.03461832        0.05654560       -3.49953914
 C            0.26779504       -0.03520108       -3.96958009
 C           -0.89847145        0.83776625       -3.96758336
