   70
C70 / DATE: 7/ 1/2024 / Origin: Program Fullerene / C70 from database
 C            1.40112261       -0.21894012        5.15298960
 C            0.55566333       -1.39822342        5.14930556
 C            1.14269531       -2.36764243        4.23853586
 C            2.52361822       -0.47564229        4.26818379
 C            2.40188699       -1.83024846        3.76007119
 C            2.59526717        0.61863245        3.31447471
 C            0.63792773        0.87752809        4.58060543
 C            1.43082013        1.46310921        3.52099078
 C           -0.73227276       -1.01440958        4.60180508
 C           -0.68270285        0.38919468        4.24153564
 C            0.12782240       -2.73862450        3.26416433
 C           -1.06351772       -1.96050476        3.55776591
 C            0.49399715       -2.91392648        1.92576269
 C            2.75339287       -2.06521782        2.44008423
 C            1.83952984       -2.80506320        1.58032460
 C            2.98203329        0.34855833        2.00385304
 C            3.27196798       -0.96560172        1.64125063
 C            2.59744743        1.23787880        1.00175078
 C            0.77955114        1.94425718        2.39395176
 C            1.53047568        2.10936462        1.23945199
 C           -1.22846070        0.76229305        3.01619771
 C           -0.59771411        1.75144181        2.25851902
 C           -1.80011883       -1.50882772        2.47832054
 C           -2.06000145       -0.14067374        2.35607204
 C           -0.48315329       -2.75073735        0.93302082
 C           -1.73129174       -2.25486550        1.31473238
 C           -0.11095190       -2.71181286       -0.41974382
 C            2.19837548       -2.47827261        0.21435317
 C            3.12414939       -1.35993808        0.25014085
 C            1.22256622       -2.47727671       -0.76880015
 C            2.95334993        0.95847332       -0.31522844
 C            2.99278999       -0.37700881       -0.72370339
 C            2.73832750        1.94987068       -1.26539888
 C            0.94549198        2.77243125        0.16700574
 C            1.68697642        2.91465583       -1.00356839
 C           -1.20442230        2.15406867        1.06735707
 C           -0.44643409        2.85900998        0.12487823
 C           -2.73411679        0.29539599        1.21579237
 C           -2.39772268        1.53728883        0.67483031
 C           -2.68359288       -1.98386286        0.35056256
 C           -3.30070861       -0.67250324        0.38642933
 C           -1.09846429       -2.60699579       -1.40745467
 C           -2.40322035       -2.29611900       -1.03343473
 C           -0.71645533       -2.43581154       -2.73809406
 C            1.50321731       -1.81119684       -1.95814877
 C            2.39656592       -0.73420208       -1.93564051
 C            0.63018327       -1.97956709       -3.02491503
 C            2.65750179        1.57458871       -2.66366285
 C            2.40922381        0.18367471       -2.98093446
 C            1.01901932        3.21112201       -2.26106333
 C            1.61022563        2.36962021       -3.28438886
 C           -1.06871811        3.38554938       -1.00263853
 C           -0.35382141        3.40233690       -2.26629491
 C           -3.05189512        1.97455746       -0.47472514
 C           -2.43915623        3.00807126       -1.28551792
 C           -3.69464597       -0.33196056       -0.96989650
 C           -3.20004992       -1.38522838       -1.84497211
 C           -3.63314977        0.99351734       -1.37599900
 C           -1.61625078       -1.76192397       -3.66056476
 C           -2.78060036       -1.07757790       -3.13119843
 C            0.55695636       -0.97571774       -4.07454713
 C            1.36394973        0.14636174       -3.98717935
 C            0.75260852        1.46817843       -4.03356148
 C           -0.83956852       -0.80013947       -4.42406746
 C           -1.16992357        2.68281997       -3.23430252
 C           -2.50816613        2.58806148       -2.67753087
 C           -3.20434584        1.31635850       -2.72838727
 C           -2.71299567        0.31347584       -3.55596237
 C           -0.63259537        1.59635921       -3.92690405
 C           -1.44549242        0.50815861       -4.24663963
