   70
C70 / DATE: 7/ 1/2024 / Origin: Program Fullerene / C70 from database
 C            1.36422613       -0.13045581        4.54373302
 C            2.63441613       -0.40304818        3.89871053
 C            2.59113087       -1.75869961        3.38269600
 C            0.51397750       -1.29598178        4.36852864
 C            1.29843896       -2.33129964        3.72135480
 C           -0.72179421       -0.85965651        3.73930196
 C            0.60986450        1.03744975        4.12626982
 C           -0.70446800        0.59256704        3.69526404
 C            1.24757643        2.02719279        3.39368414
 C            3.07041431        0.46897862        2.82281778
 C            2.49907206        1.72571614        2.70106171
 C            2.99561917       -1.72217117        1.98492060
 C            3.23657207       -0.33824017        1.62382406
 C            2.33573353       -2.53664067        1.07677803
 C            0.67646220       -3.13498569        2.77873782
 C            1.39152862       -3.44293307        1.55626900
 C           -1.21485278       -1.56924954        2.64373429
 C           -0.68859940       -2.82770833        2.37329680
 C           -1.91792115       -0.88325732        1.64820800
 C           -1.32918990        1.22787937        2.62895818
 C           -2.18119670        0.47602295        1.82834480
 C            0.45291379        2.85043663        2.49920994
 C           -0.83216643        2.44311568        2.14355180
 C            2.40105877        2.31407167        1.38063223
 C            1.34924145        3.30836127        1.45850808
 C            2.76352039        0.13689364        0.39892321
 C            2.47502131        1.49588266        0.25189717
 C            2.26284808       -2.13729056       -0.25742322
 C            2.33694728       -0.77395490       -0.57418301
 C            1.71473682       -3.02739951       -1.17247056
 C            0.40182024       -3.96902925        0.63992878
 C           -0.88088835       -3.41551826        1.06019571
 C            0.70182785       -3.96641374       -0.71026072
 C           -2.14380717       -1.47448008        0.39505134
 C           -1.67540207       -2.76229863        0.12083339
 C           -2.76154708       -0.73460335       -0.61740536
 C           -2.99476794        1.14128591        0.92634731
 C           -3.38885200        0.46050719       -0.29040751
 C           -1.43021144        3.01696803        1.01719460
 C           -2.65010130        2.50672405        0.57778960
 C            0.79748413        3.76084661        0.27666409
 C           -0.65007886        3.78685274        0.14841087
 C            1.93177860        1.95982738       -0.94451020
 C            1.30250852        3.20728135       -0.96340531
 C            1.85954843       -0.30135707       -1.80594457
 C            1.74959874        1.08270466       -2.01412147
 C            1.31849291       -2.55384683       -2.48130017
 C            1.44254402       -1.20625703       -2.79711367
 C           -0.40710844       -3.88737468       -1.63665295
 C           -1.60521655       -3.19204676       -1.20337550
 C            0.07603837       -3.22303166       -2.82723291
 C           -2.50232776       -1.03597604       -1.95804854
 C           -1.99641060       -2.29237033       -2.27698382
 C           -1.00922478       -2.41256825       -3.34227075
 C           -2.43837332       -0.01137490       -2.91210269
 C           -3.56522775        1.46629014       -1.31755641
 C           -3.08074928        2.73274554       -0.79094782
 C           -2.94263033        1.24986332       -2.60663427
 C           -0.93725057        3.80229968       -1.28100083
 C            0.30609583        3.49551399       -1.97810118
 C           -2.13925437        3.28492271       -1.74588008
 C           -2.14957361        2.43085640       -2.92262539
 C            1.18943171        1.57914779       -3.19144718
 C            0.28436167        2.71231996       -3.12022314
 C           -0.99040908        2.28617803       -3.67713008
 C            0.68309411       -0.74868739       -3.87108696
 C           -0.66494531       -1.27010640       -4.04270145
 C           -1.55227963       -0.12774216       -3.98011740
 C            0.63875336        0.66450589       -4.16153793
 C           -0.75787270        1.02584567       -4.35942905
