   70
C70 / DATE: 7/ 1/2024 / Origin: Program Fullerene / C70 from database
 C            1.32031019       -0.13552301        4.34936967
 C            2.60559950       -0.33498467        3.70800077
 C            2.58144006       -1.63592367        3.06563957
 C            0.48244181       -1.28147256        4.03661104
 C            1.24289052       -2.18061757        3.19467380
 C           -0.78314891       -0.78692901        3.54130660
 C            0.56584860        1.06510613        4.04028416
 C           -0.75958708        0.66347889        3.59565173
 C            1.19868839        2.11318943        3.38789085
 C            3.05949706        0.63617628        2.72713655
 C            2.44998690        1.87869761        2.66990348
 C            3.12580679       -1.48522117        1.72890426
 C            3.32991376       -0.06903419        1.48421736
 C            2.57259956       -2.23775620        0.70703158
 C            0.64633000       -2.70377755        2.05288524
 C            1.47401119       -3.05132383        0.99159518
 C           -1.35313453       -1.38679793        2.43106875
 C           -0.70798614       -2.45658336        1.79424457
 C           -2.33111147       -0.68267658        1.74681417
 C           -1.39306820        1.38620216        2.58177380
 C           -2.26975568        0.71930024        1.71253185
 C            0.39921251        3.00326466        2.56871313
 C           -0.91357009        2.65676724        2.24793987
 C            2.33382012        2.53482162        1.38213008
 C            1.27169537        3.50959722        1.52208289
 C            2.90986857        0.47023102        0.26272553
 C            2.41488032        1.77858112        0.21220969
 C            2.73186830       -1.77616307       -0.59263986
 C            2.70373032       -0.39282630       -0.81989719
 C            2.46431108       -2.66727012       -1.62270356
 C            0.93026303       -3.81084956       -0.03281659
 C            1.56722701       -3.77045225       -1.33940034
 C           -1.30101736       -3.03757540        0.66086813
 C           -0.50703555       -3.75748729       -0.23546771
 C           -3.10580867       -1.38220112        0.83825241
 C           -2.52564066       -2.54783349        0.20031047
 C           -3.86155646       -0.65856162       -0.15630871
 C           -2.96213178        1.44202002        0.72901186
 C           -3.65595007        0.76641575       -0.26879327
 C           -1.55351307        3.38496679        1.25309639
 C           -2.57485820        2.74533232        0.44702294
 C            0.69305998        4.02485018        0.37667558
 C           -0.74641619        4.21054343        0.36973193
 C            1.76922446        2.23638993       -0.93951421
 C            1.05476306        3.43900305       -0.90321124
 C            2.20289213        0.11872782       -2.02279658
 C            1.65501449        1.40198864       -2.05256820
 C            2.13303148       -2.16102052       -2.93430350
 C            1.96656239       -0.73352201       -3.10193326
 C            0.52218999       -3.76152066       -2.34766303
 C           -0.74082099       -3.59419660       -1.66252628
 C            0.89155191       -2.79766187       -3.35642096
 C           -2.72758681       -2.40069017       -1.23452535
 C           -3.57930938       -1.25459458       -1.45210091
 C           -1.64859871       -2.62501236       -2.07932303
 C           -3.33841756        1.06202166       -1.65682215
 C           -3.10903903       -0.20763979       -2.32904006
 C           -2.35788381        3.12030835       -0.94381462
 C           -1.21368723        4.01027190       -0.98994606
 C           -0.07406003        3.63258549       -1.79937353
 C           -2.51175077        2.14922898       -1.93257937
 C            0.76220679        1.73610067       -3.07193276
 C           -0.26827492        2.72252658       -2.82201144
 C           -1.55132416        2.03571217       -2.94268134
 C            0.76119359       -0.55033199       -3.88923638
 C           -0.04275468       -1.73783263       -3.68049770
 C           -1.24860157       -1.62038506       -2.98329513
 C           -1.92964782       -0.39373846       -3.03817082
 C            0.13717380        0.68008322       -3.84259265
 C           -1.28405745        0.73349763       -3.54139811
