   70
C70 / DATE: 7/ 1/2024 / Origin: Program Fullerene / C70 from database
 C            1.35407362       -0.04319592        4.40157005
 C            2.57075680       -0.33335604        3.67947697
 C            2.53104806       -1.73165840        3.28310655
 C            0.50705126       -1.22267160        4.35307740
 C            1.25170006       -2.28214308        3.69449383
 C           -0.78343316       -0.82520157        3.80733297
 C            0.55854241        1.08080736        3.96270263
 C           -0.79697120        0.61844163        3.71695835
 C            1.09234045        1.99660646        3.06574470
 C            2.87853351        0.45717425        2.50022030
 C            2.11095977        1.57857354        2.19036430
 C            2.91185567       -1.80851815        1.88251748
 C            3.22372425       -0.46373374        1.43343726
 C            2.20674976       -2.64963393        1.02463540
 C            0.57580281       -3.11446921        2.81484126
 C            1.19573580       -3.46085613        1.54654519
 C           -1.33323525       -1.56775756        2.77524837
 C           -0.82124360       -2.84041763        2.52405692
 C           -2.10513907       -0.92782469        1.80318627
 C           -1.51899402        1.24577358        2.70361029
 C           -2.07875277        0.46995497        1.67720560
 C            0.20687121        2.97063679        2.62925027
 C           -1.18079169        2.56805095        2.44170319
 C            0.58197366        3.80084952        1.50821514
 C            2.12355846        2.03835518        0.86783898
 C            1.53484484        3.26080956        0.56660606
 C            2.91636228       -0.12519854        0.12375169
 C            2.43734940        1.15481047       -0.16896741
 C            2.23402734       -2.38520403       -0.34763932
 C            2.71695613       -1.15036430       -0.79559396
 C            1.48355370       -3.18724741       -1.20554330
 C            0.12673500       -3.92998714        0.67776308
 C           -1.13494911       -3.51059787        1.27443644
 C            0.29946916       -3.85114433       -0.69587755
 C           -2.71197201       -1.69899467        0.82186746
 C           -2.13792638       -2.98800265        0.47208702
 C           -3.15817994       -1.07300705       -0.40019633
 C           -2.53900351        1.08405744        0.49251003
 C           -3.13605741        0.30835464       -0.51842832
 C           -1.67060859        3.20940843        1.24507184
 C           -0.63040195        4.11183620        0.77883675
 C           -2.36876292        2.46752549        0.30208739
 C            1.00863277        3.48910763       -0.76991447
 C           -0.30450274        4.10466787       -0.63314422
 C            2.10263203        1.47400430       -1.48893925
 C            1.21090405        2.52053692       -1.74981919
 C            2.65295199       -0.81929875       -2.14451887
 C            2.42156085        0.57028097       -2.49848199
 C            1.17305765       -2.72072403       -2.54277390
 C            1.88269711       -1.64891313       -3.05700205
 C           -0.81739299       -3.46602643       -1.54657150
 C           -2.00565629       -3.03889789       -0.97528345
 C           -2.67435240       -1.87164400       -1.51729540
 C           -0.27715811       -2.74319187       -2.68490722
 C           -2.16445535       -1.21662378       -2.63780636
 C           -0.93790107       -1.61992971       -3.18725395
 C           -3.24734752        0.81518593       -1.80950915
 C           -2.66379743        0.05777137       -2.90685302
 C           -2.45053427        3.00641874       -0.98018143
 C           -1.30203267        3.72454147       -1.51364078
 C           -3.00170351        2.21428129       -2.05310097
 C            0.32181223        2.44001807       -2.83165521
 C           -1.91069795        0.98457381       -3.73578510
 C           -0.92610118        3.05069139       -2.73913952
 C           -2.09569613        2.31610856       -3.18630909
 C            1.65503300        0.58963115       -3.72525605
 C            1.21628752       -0.76915378       -3.99743728
 C           -0.23566001       -0.76296822       -4.03498370
 C            0.49228487        1.44878914       -3.79443673
 C           -0.64701723        0.61992218       -4.16811139
