   70
C70 / DATE: 7/ 1/2024 / Origin: Program Fullerene / C70 from database
 C            1.18274824        0.00580677        4.49671533
 C            2.44512067       -0.16565244        3.81268011
 C            2.52306643       -1.56098578        3.44104334
 C            0.36996544       -1.17851122        4.23451527
 C            1.16668590       -2.07863087        3.44293399
 C           -0.89201053       -0.72077233        3.69606678
 C            0.36772223        1.14333173        4.13998167
 C           -0.99960722        0.66044508        4.11498904
 C            0.78240884        1.98826688        3.11072949
 C            2.68820843        0.60903936        2.60821051
 C            1.72434360        1.52000206        2.18568157
 C            3.25982452       -1.63380910        2.19774520
 C            3.29536062       -0.28667800        1.64092850
 C            2.93093180       -2.66676521        1.33887767
 C            0.66213116       -2.57389230        2.24592408
 C            1.58012582       -3.21186283        1.42330077
 C           -1.24160078       -1.05194161        2.38563725
 C           -0.47586325       -1.98170536        1.66440812
 C           -2.15535262       -0.23327502        1.71440379
 C           -1.93766761        1.45836793        3.49262657
 C           -2.65047759        0.90725211        2.35102031
 C           -0.11800624        2.96559415        2.71318792
 C           -1.50831268        2.78797866        3.10231696
 C           -0.11319786        3.41332252        1.33266826
 C            1.51170034        1.71249041        0.81360831
 C            0.60835338        2.68819834        0.38400046
 C            3.02330567       -0.12054184        0.28489634
 C            2.16051353        0.90346888       -0.12972607
 C            3.20195309       -2.48727035       -0.06937567
 C            3.27933357       -1.19127859       -0.57417982
 C            1.18668641       -3.60070865        0.09057200
 C            2.36503273       -3.45440087       -0.74967598
 C           -0.78530111       -2.23554021        0.31735674
 C           -0.04473524       -3.18756737       -0.39894579
 C           -2.35144602       -0.38277536        0.34122614
 C           -1.76264339       -1.46201281       -0.33294614
 C           -3.08348347        0.58613056       -0.36123496
 C           -3.08891292        2.03418465        1.54808520
 C           -2.33365780        3.19634570        1.98880126
 C           -1.46751346        3.84698032        1.02404249
 C           -3.25294594        1.86392898        0.18247100
 C           -1.87373722        3.81834641       -0.29599227
 C           -3.00999789        2.97800911       -0.62137001
 C            0.21353591        2.73207946       -0.95646750
 C           -0.88690023        3.51098745       -1.30999499
 C            1.83525673        1.03068681       -1.48495992
 C            0.72726398        1.79454901       -1.85798114
 C            3.12724817       -1.00818234       -1.94122147
 C            2.38160054        0.14396106       -2.41165698
 C            2.19048174       -3.32449848       -2.11668441
 C            2.75422098       -2.15040938       -2.76413992
 C           -0.28352079       -3.37360709       -1.75285253
 C            0.85506126       -3.51930602       -2.65063461
 C           -2.07574119       -1.70125580       -1.68006232
 C           -1.26221246       -2.55082777       -2.42206679
 C           -3.36193995        0.39129190       -1.70850644
 C           -2.74572086       -0.71732478       -2.40334033
 C           -2.99527968        2.82768352       -2.05911346
 C           -1.64527678        3.16885280       -2.49570935
 C           -3.31836809        1.53055813       -2.60942400
 C            0.02045518        1.45295056       -3.02319428
 C           -2.08781181       -0.18342011       -3.58966803
 C           -1.17575856        2.08715953       -3.32943038
 C           -2.31287299        1.24316572       -3.61195859
 C            1.56456868       -0.28074464       -3.53556470
 C            1.81014564       -1.69228450       -3.76650833
 C            0.67877074       -2.59014952       -3.75162223
 C           -0.63573024       -2.00805794       -3.61638228
 C            0.26964915        0.21885436       -3.62329055
 C           -0.81017672       -0.65362442       -3.85577020
