   70
C70 / DATE: 7/ 1/2024 / Origin: Program Fullerene / C70 from database
 C            1.07290276       -0.05094227        4.72448617
 C            2.30392159       -0.39099875        4.04555066
 C            2.21952088       -1.78578262        3.65114569
 C            0.23282617       -1.23915474        4.74249321
 C            0.85085481       -2.22101381        3.87341032
 C           -1.12286909       -0.82388549        4.46442998
 C            0.27192889        1.03904954        4.20334985
 C           -1.11332312        0.61253048        4.23847878
 C            0.70158516        1.75308569        3.08882017
 C            2.68000693        0.36882762        2.87093655
 C            1.94310434        1.48277025        2.49300218
 C            2.77646425       -1.90437041        2.31444467
 C            3.07248338       -0.56324037        1.83296115
 C            2.19321170       -2.80665295        1.44324542
 C            0.13955185       -2.76174423        2.80001937
 C            0.87497342       -3.33551605        1.76113703
 C           -1.81584297       -1.42870587        3.34806731
 C           -1.22060593       -2.45469198        2.61492252
 C           -1.94861472        0.88976747        3.07784592
 C           -2.50683929       -0.36970172        2.62878420
 C           -0.26446793        2.41715257        2.33352070
 C           -1.49040072        1.78685692        2.12275714
 C            0.17346569        3.34032515        1.39713260
 C            2.17856773        2.00219359        1.22445746
 C            1.52841434        3.18680838        0.91194493
 C            2.80152848       -0.22260042        0.50557479
 C            2.53017437        1.11428045        0.19406946
 C            2.20397508       -2.51418436        0.02414531
 C            2.47495592       -1.22048771       -0.41910621
 C            0.23211723       -3.68338586        0.50859552
 C            1.09816163       -3.23975402       -0.57266875
 C           -1.86098240       -2.82469162        1.43417762
 C           -1.13356820       -3.51768333        0.38602683
 C           -2.76743443       -0.55626608        1.27469882
 C           -2.74395408       -1.85894034        0.79595410
 C           -1.98984788        1.69839100        0.82275668
 C           -2.55646609        0.49474749        0.37547854
 C           -0.65861095        3.60958033        0.24021668
 C           -1.66536925        2.70553097       -0.08869083
 C            1.57483900        3.68602537       -0.44231770
 C            0.22690371        4.09890081       -0.80050820
 C            2.34019685        1.47343614       -1.14517662
 C            2.03847184        2.79417751       -1.47768414
 C            2.05079271       -0.85630030       -1.69818000
 C            2.17196044        0.47468976       -2.10529310
 C            0.53957026       -2.73451123       -1.73936817
 C            1.24340870       -1.74298372       -2.42234802
 C           -1.67821498       -3.08860949       -0.88918723
 C           -2.70301006       -2.09137406       -0.63156295
 C           -0.83261008       -2.88635551       -1.97422749
 C           -2.76384289        0.28433699       -0.99402786
 C           -2.80595703       -1.01781457       -1.50814222
 C           -2.08249335        2.60091759       -1.41277023
 C           -2.69592919        1.36740050       -1.86538602
 C           -0.00796559        3.68280200       -2.16955111
 C            1.22159115        3.06457842       -2.64681863
 C           -1.22888552        3.10017316       -2.48570548
 C            1.83157883        0.83490316       -3.40853279
 C            1.15565701        2.09875801       -3.63756701
 C            0.85980198       -1.43569083       -3.72098120
 C            1.20476107       -0.14324343       -4.27417517
 C           -1.38946497       -2.24688223       -3.07772602
 C           -2.42012370       -1.24943791       -2.82851721
 C           -0.50639270       -1.72194642       -4.10013956
 C           -2.30698962        1.15962814       -3.25065452
 C           -1.30087661        2.15890101       -3.58987917
 C           -0.12844701        1.78485736       -4.24228714
 C           -0.01295936        0.45328076       -4.80759712
 C           -2.19806482       -0.13669064       -3.73422513
 C           -1.09280561       -0.49342924       -4.60803535
