   70
C70 / DATE: 7/ 1/2024 / Origin: Program Fullerene / C70 from database
 C            1.10676736       -0.05222335        4.59484524
 C            2.44797844       -0.30133858        4.10326156
 C            2.46048021       -1.63356009        3.52342643
 C            0.30657409       -1.23291143        4.30575214
 C            1.08584855       -2.10129483        3.45661758
 C           -0.97361540       -0.78819531        3.81927689
 C            0.37536292        1.10676594        4.10949228
 C           -0.96222485        0.66381716        3.76678118
 C            1.00696003        2.03131678        3.29091044
 C            3.02263586        0.60851202        3.12988337
 C            2.37421707        1.80094459        2.83756560
 C            3.23117363       -1.57940990        2.29683419
 C            3.56769611       -0.18589224        2.03972085
 C            2.81951846       -2.36757763        1.23581555
 C            0.56736361       -2.49904023        2.22289948
 C            1.46577250       -2.90696633        1.24072309
 C           -1.56876763       -1.45802044        2.76037355
 C           -0.75567946       -2.17537277        1.86646203
 C           -2.72489760       -0.86813501        2.27621045
 C           -1.66326933        1.27337399        2.72743469
 C           -2.77894304        0.58633714        2.26748060
 C            0.26284493        2.62300949        2.18972969
 C           -0.97697784        2.10503905        1.83313081
 C            2.48597206        2.34783023        1.50132925
 C            1.21337858        2.95801122        1.14991676
 C            3.51263954        0.30367565        0.73216434
 C            3.17841484        1.65131329        0.51710934
 C            3.09822098       -1.91881314       -0.11259441
 C            3.51056957       -0.60955643       -0.33459050
 C            1.02930285       -3.00772496       -0.13577946
 C            2.08693221       -2.49069693       -0.98454794
 C           -1.19889403       -2.39740825        0.54797873
 C           -0.27919086       -2.70489028       -0.45943546
 C           -3.29830871       -1.33152048        1.03552696
 C           -2.52629881       -2.12065590        0.19348718
 C           -3.40034890        0.98625986        1.02481312
 C           -4.03224612       -0.20475837        0.48304180
 C           -1.40394623        2.20958085        0.50244416
 C           -2.70881827        1.83499114        0.16993972
 C            0.81657656        2.93198243       -0.18244458
 C           -0.49089451        2.55411715       -0.50850737
 C            3.05303511        2.12925184       -0.78068611
 C            1.81712253        2.80973730       -1.14340917
 C            3.48912075       -0.14835869       -1.64495328
 C            3.43148009        1.27523695       -1.88155214
 C            1.74531955       -1.81034482       -2.15074131
 C            2.59559822       -0.79506125       -2.59743318
 C           -0.57419943       -2.39404889       -1.78133555
 C            0.42263006       -1.85729985       -2.60592826
 C           -2.92146021       -2.24408312       -1.13920473
 C           -1.90628792       -2.35481515       -2.17032165
 C           -4.37240118       -0.22364828       -0.85924855
 C           -3.97448615       -1.37642807       -1.64794869
 C           -3.14325521        1.93884055       -1.14684380
 C           -4.10417372        0.96653500       -1.64882279
 C           -0.84223196        2.39495586       -1.85387381
 C           -2.17432896        2.18708985       -2.19569090
 C            1.47145830        2.42006121       -2.49658483
 C            2.50376442        1.51410838       -2.97228063
 C            2.10004996        0.22687587       -3.50794851
 C            0.14779122        2.13622321       -2.80410591
 C            0.06238934       -1.09323575       -3.71385677
 C            0.81485035        0.10776186       -4.01091478
 C           -0.10642790        1.21475404       -3.81861498
 C           -2.30547174       -1.52323239       -3.29311670
 C           -3.57740634       -0.90551810       -2.96372242
 C           -3.66978332        0.54219409       -2.96754831
 C           -2.49027915        1.31213518       -3.31514719
 C           -1.33592621       -0.77363430       -3.94333873
 C           -1.44636989        0.68303237       -3.97930567
