   70
C70 / DATE: 7/ 1/2024 / Origin: Program Fullerene / C70 from database
 C            1.19509157        0.35646701        4.93660105
 C            2.40724279        0.09024600        4.19017273
 C            2.43915037       -1.33400059        3.91601882
 C            0.38282184       -0.85297576        4.91228739
 C            1.10026530       -1.85083700        4.13758374
 C           -0.96351299       -0.48265123        4.51469805
 C            0.35834350        1.45600211        4.51258840
 C           -1.00566796        0.96104374        4.40047022
 C            0.66856397        2.14351903        3.26986639
 C            2.63161771        0.77665830        2.92614066
 C            1.69016655        1.68210019        2.43905586
 C            3.03619580       -1.51203925        2.60863919
 C            3.20801651       -0.19203870        2.01510156
 C            2.55223819       -2.53205706        1.80548595
 C            0.45241837       -2.51562406        3.09573706
 C            1.21344296       -3.05143959        2.05735812
 C           -1.61865195       -1.24763673        3.56098409
 C           -0.92205519       -2.35598598        2.92187401
 C           -2.43327686       -0.59506630        2.54373707
 C           -1.58508468        1.55871318        3.20919678
 C           -0.60326146        2.48415212        2.67430942
 C           -2.30981920        0.77364880        2.30872100
 C           -0.65340541        2.73397974        1.31872639
 C            1.57945271        1.88201331        1.05823056
 C            0.51648455        2.64212359        0.56446629
 C            2.99627308       -0.04193397        0.64877597
 C            2.32252768        1.09223023        0.17735821
 C            2.69963977       -2.40147382        0.37068132
 C            3.07792222       -1.17429433       -0.16241834
 C            0.59297961       -3.32545396        0.76712675
 C            1.60110596       -3.11588564       -0.25471876
 C           -1.51394500       -2.54140379        1.60434221
 C           -2.51070511       -1.50077634        1.41584262
 C           -0.71261629       -2.91386095        0.52612468
 C           -2.68063637       -0.98345092        0.14493235
 C           -2.48911046        1.26401942        1.00819259
 C           -1.84879989        2.45760019        0.68040659
 C           -2.85872815        0.39018507       -0.02453309
 C           -2.00706214        2.98397417       -0.58481135
 C            0.41881728        2.89566535       -0.80673163
 C           -0.80036955        3.40562953       -1.26425418
 C            2.17598851        1.27338015       -1.19902528
 C            1.26725219        2.21547500       -1.69201586
 C            2.96246212       -1.01626656       -1.53399561
 C            2.69219831        0.30493867       -2.05767014
 C            1.20674123       -2.71828210       -1.52492000
 C            2.09751529       -1.93471366       -2.25523184
 C           -1.07959419       -2.51974608       -0.76517425
 C           -2.22819859       -1.73650865       -0.92666162
 C           -0.15525869       -2.63593535       -1.81407154
 C           -2.65131660       -1.37222646       -2.19298107
 C           -3.02576588        0.89370532       -1.32288664
 C           -2.78804276        2.24609135       -1.55295676
 C           -3.05855442        0.00570692       -2.40355105
 C           -1.10732233        3.43820910       -2.67777009
 C           -2.34710042        2.69527827       -2.86430621
 C            1.06699423        2.30187662       -3.07483726
 C           -0.13082702        2.92340330       -3.60494856
 C            2.10989570        0.12213430       -3.37575970
 C            1.64466790       -1.25587842       -3.45722677
 C            1.33741236        1.14219050       -3.90450370
 C           -0.53975445       -2.30145659       -3.11066949
 C           -1.87822755       -1.79862857       -3.33835275
 C            0.37177285       -1.52765452       -3.93959466
 C           -2.56943923        0.41597822       -3.71557140
 C           -2.12747820        1.71751037       -3.90991292
 C           -0.79620794        1.94640527       -4.45297087
 C            0.11215829        0.82273694       -4.62344364
 C           -1.79381965       -0.68315013       -4.26543639
 C           -0.39222067       -0.47365830       -4.58792068
