   70
C70 / DATE: 7/ 1/2024 / Origin: Program Fullerene / C70 from database
 C            1.44020306       -0.01082515        4.53073208
 C            2.67990741       -0.16645104        3.79544843
 C            2.59017619       -1.39394246        3.02109844
 C            0.60107685       -1.15785271        4.23525777
 C            1.29746418       -1.99505689        3.27443252
 C           -0.72287219       -0.67281470        3.88112147
 C            0.64930217        1.18705049        4.31669775
 C           -0.66431757        0.77877316        3.83382580
 C            1.25248456        2.30143264        3.75107989
 C            3.09732257        0.89725216        2.89939181
 C            2.49263495        2.14373613        2.99271576
 C            2.94453649       -1.08808163        1.65166548
 C            3.30951766        0.31627624        1.58359709
 C            2.17733574       -1.62128563        0.62381431
 C            0.56270464       -2.48594994        2.20198340
 C            1.11850320       -2.48519844        0.91702526
 C           -1.41367057       -1.33676562        2.87766127
 C           -0.82146032       -2.46720638        2.31569983
 C           -2.29854402       -0.59982620        2.09532008
 C           -1.25190160        1.45371709        2.75863749
 C           -1.98326455        0.72884585        1.81397687
 C            0.41096742        3.23311041        3.02567180
 C           -0.83387944        2.74564134        2.45706324
 C            2.38211019        2.95631701        1.79614590
 C            1.20005767        3.78521445        1.94353308
 C            2.96262640        1.03836855        0.44347835
 C            2.64872317        2.39918189        0.54575444
 C            2.21115559       -1.00046039       -0.61702305
 C            2.61882947        0.33549581       -0.71535498
 C            1.59149151       -1.62245491       -1.69294281
 C            0.35155826       -2.99734231       -0.13732134
 C            0.63491239       -2.61216883       -1.45351890
 C           -1.55129535       -3.19713481        1.39342335
 C           -0.88689161       -3.57273344        0.15852688
 C           -3.13387229       -1.29378346        1.23104922
 C           -2.86959166       -2.70729924        1.04081040
 C           -3.41294470       -0.72439554       -0.07475440
 C           -2.09521980        1.20092822        0.49759798
 C           -2.71793880        0.41508750       -0.47195167
 C           -0.90090902        3.20816875        1.08211815
 C            0.32748735        3.93562934        0.79657966
 C           -1.43723088        2.36654351        0.10861650
 C            2.14850606        3.06046445       -0.57333499
 C            0.88955295        3.78868036       -0.45805983
 C            2.45086909        1.02947807       -1.91427911
 C            2.13385935        2.38350239       -1.85849270
 C            1.73185647       -1.06895555       -2.95995437
 C            2.12593152        0.32474281       -3.07095341
 C            0.73529068       -1.33726432       -3.98379860
 C           -0.19837829       -3.03670848       -2.48990667
 C           -0.23912806       -2.29176603       -3.73797037
 C           -1.90991240       -3.67426194       -0.86967763
 C           -3.10658792       -3.02873904       -0.35233441
 C           -3.59404834       -1.82619688       -1.00664315
 C           -1.55978452       -3.44650061       -2.19028657
 C           -1.62805237       -1.93506906       -3.98244596
 C           -3.27942434       -1.63382378       -2.34189160
 C           -2.44319455       -2.62487234       -3.00163975
 C           -2.42017479        0.61793437       -1.82267254
 C           -2.81612284       -0.32590897       -2.77247816
 C           -2.00337697       -0.53073282       -3.95988761
 C           -1.06666276        2.53210598       -1.22898353
 C            0.04660442        3.31376099       -1.53348618
 C            0.95403331        2.86089651       -2.56453272
 C           -1.54331669        1.64068114       -2.19392014
 C            1.23446446        0.95442691       -4.03011516
 C            0.31996115       -0.05546857       -4.52785166
 C           -1.03493227        0.40919293       -4.27144104
 C            0.44008306        2.08164091       -3.58351775
 C           -0.92520013        1.60101977       -3.44812896
