   70
C70 / DATE: 7/ 1/2024 / Origin: Program Fullerene / C70 from database
 C            1.19260861       -0.07980466        4.53096869
 C            2.48702404       -0.28634429        3.91429342
 C            2.47491997       -1.61229779        3.31597696
 C            0.39155090       -1.26769496        4.27129244
 C            1.10926821       -2.08522576        3.32197088
 C           -0.93659180       -0.83200924        3.91978842
 C            0.40064172        1.07671070        4.14944233
 C           -0.96261874        0.61991760        3.97047404
 C            0.91783163        2.01108834        3.26427869
 C            2.94937978        0.64965738        2.90393781
 C            2.21178281        1.79102016        2.62641627
 C            3.14730842       -1.52425118        2.04051224
 C            3.48472385       -0.12842405        1.80375385
 C            2.65650043       -2.25652630        0.96664360
 C            0.51407805       -2.39126398        2.10026288
 C            1.33413396       -2.72447305        1.01633688
 C           -1.60312566       -1.44996439        2.86812074
 C           -0.85049638       -2.12212563        1.88771717
 C           -2.81526899       -0.86816011        2.50819157
 C           -1.81384937        1.26951113        3.08257163
 C           -2.95962810        0.56134020        2.74144244
 C            0.03443743        2.61753963        2.28336067
 C           -1.27505585        2.16628000        2.14331083
 C            2.11549708        2.25358031        1.25342094
 C            0.81450148        2.87820683        1.09024261
 C            3.40745877        0.34779178        0.49491021
 C            2.63013501        1.48059019        0.20977141
 C            3.22100253       -1.96091692       -0.26752613
 C            3.62786942       -0.58662312       -0.51064913
 C            2.62834034       -2.47768197       -1.48535009
 C            0.74337654       -3.25310761       -0.12670188
 C            1.40726590       -3.12981203       -1.41486463
 C           -1.40911213       -2.35794293        0.62270545
 C           -0.67673636       -3.04594774       -0.33626437
 C           -3.37914325       -1.13903597        1.20394010
 C           -2.54450431       -1.65490634        0.22125128
 C           -3.83359949        1.09032536        1.72190246
 C           -4.26075838       -0.03011780        0.89971225
 C           -1.93596988        2.39234706        0.92725831
 C           -3.29306131        2.09039518        0.83194381
 C            0.20076348        2.79480311       -0.14766754
 C           -1.19130085        2.66928021       -0.23442669
 C            2.12053263        1.67683210       -1.08280739
 C            0.98571133        2.48401056       -1.24933090
 C            3.29113064       -0.26433374       -1.87805763
 C            2.86173366       -1.49410360       -2.52879657
 C            2.61673249        0.91687273       -2.15131421
 C            1.98240035       -1.40763029       -3.59928330
 C            0.38942076       -2.86916258       -2.42158755
 C           -0.87869817       -2.70987691       -1.73374122
 C            0.67764317       -2.05078398       -3.50490773
 C           -2.69001061       -1.27123517       -1.12236317
 C           -1.71684455       -1.64420848       -2.04753388
 C           -4.32937701        0.44287434       -0.46164086
 C           -3.87046181        1.82479272       -0.46524976
 C           -3.56933459       -0.25568267       -1.47839727
 C           -1.80039174        2.61450512       -1.50222372
 C           -3.03679729        1.99241343       -1.63045893
 C           -3.09890169        0.75652269       -2.39477352
 C            0.44083411        2.68632922       -2.50407884
 C           -0.99847175        2.60027352       -2.64224525
 C            2.09665458        1.08062794       -3.43240473
 C            1.78411697       -0.10644621       -4.21253445
 C            1.03123352        2.03205691       -3.65241783
 C           -0.32141828       -1.09261868       -3.94732582
 C           -1.40927597       -0.79384811       -3.12214612
 C           -2.02083540        0.46649150       -3.22021653
 C           -1.25496375        1.55782598       -3.62067387
 C            0.39125581       -0.01455213       -4.60976015
 C           -0.03519686        1.34632647       -4.36840160
