   70
C70 / DATE: 7/ 1/2024 / Origin: Program Fullerene / C70 from database
 C            1.30046254       -0.03049337        4.48184738
 C            2.63332237       -0.26501923        3.96057150
 C            2.67037074       -1.61767312        3.43546900
 C            0.49048391       -1.20265682        4.18532180
 C            1.31791438       -2.15058478        3.46876250
 C           -0.73785087       -0.75262842        3.56295297
 C            0.56908218        1.13972075        4.03181976
 C           -0.73790878        0.69880680        3.57959264
 C            1.22985786        2.12319008        3.31004109
 C            3.15343251        0.62303469        2.93552392
 C            2.53223839        1.84230523        2.71134418
 C            3.36777208       -1.58472865        2.16195913
 C            3.54058236       -0.18806280        1.79242897
 C            2.97438872       -2.48374025        1.18358620
 C            0.81450670       -2.75110724        2.31898827
 C            1.72407055       -3.20277889        1.36441513
 C           -1.19906867       -1.40248642        2.42098630
 C           -0.51516918       -2.52502474        1.94313057
 C           -2.08942310       -0.72417393        1.58158164
 C           -1.36662261        1.35928689        2.53132773
 C           -2.28768030        0.64535471        1.77337354
 C            0.47605706        2.91360525        2.35272681
 C           -0.81778293        2.53267463        2.00028978
 C            2.50758002        2.37511884        1.36278644
 C            1.39870342        3.30693648        1.30568158
 C            3.20993509        0.22572420        0.49897838
 C            2.74046788        1.52955732        0.27884003
 C            3.02101050       -2.07253255       -0.20655907
 C            3.15690189       -0.72416521       -0.52566390
 C            1.25223486       -3.59311933        0.04816269
 C            2.04831053       -2.87501218       -0.93388609
 C           -1.02592502       -3.20061194        0.84000422
 C           -0.10814305       -3.72571901       -0.16002253
 C           -2.60252693       -1.36089631        0.44610551
 C           -2.16859595       -2.64517626        0.13484513
 C           -3.33788523       -0.63707667       -0.49793345
 C           -3.10952365        1.35258546        0.91296340
 C           -3.71408967        0.67113193       -0.21386015
 C           -1.38897807        3.08358085        0.84896849
 C           -2.65836554        2.65696958        0.46525133
 C            0.88126138        3.64278675        0.06806345
 C           -0.56161140        3.69577935       -0.09699619
 C            2.29020229        1.91416029       -0.98818809
 C            1.42394357        2.99967211       -1.11769462
 C            2.83748551       -0.32609657       -1.81653754
 C            2.41696041        1.03918581       -2.05872418
 C            1.43617472       -2.33020965       -2.06095267
 C            2.01061765       -1.19819266       -2.63714522
 C           -0.65180052       -3.39916280       -1.46399758
 C           -2.04356203       -3.03520841       -1.25731596
 C            0.11949633       -2.68199063       -2.38050312
 C           -3.41395245       -1.08856740       -1.81930522
 C           -2.68912684       -2.28228862       -2.22417424
 C           -3.33427768       -0.12947632       -2.91462571
 C           -3.80951592        1.62660306       -1.30267372
 C           -3.07962099        2.82083171       -0.91495499
 C           -3.34328022        1.22411941       -2.61430154
 C           -0.82806469        3.52517577       -1.51825324
 C            0.36384936        2.94890146       -2.11524112
 C           -2.07302954        3.07872383       -1.92630789
 C           -2.15617889        2.01618605       -2.91472618
 C            1.38241260        1.01451244       -3.08338627
 C            1.23281862       -0.35892216       -3.53057826
 C            0.26232437        1.83163668       -2.94060815
 C           -0.99460924        1.37958565       -3.36182057
 C           -0.52095381       -2.05756030       -3.44967116
 C           -1.97172131       -1.96621047       -3.44638590
 C           -2.33468123       -0.61643340       -3.84425773
 C           -0.00624443       -0.79743685       -3.95865269
 C           -1.10946261        0.14578027       -4.00278654
