   70
C70 / DATE: 7/ 1/2024 / Origin: Program Fullerene / C70 from database
 C            1.22165607        0.06179092        4.15086190
 C            2.47886417       -0.30112528        3.54368574
 C            2.42347857       -1.72253064        3.24026607
 C            0.39568864       -1.13591096        4.19456167
 C            1.03999829       -2.13906534        3.38079364
 C           -0.94603203       -0.74179267        3.84904526
 C            0.42634137        1.10529781        3.53430050
 C           -0.95522268        0.70155696        3.68047007
 C            0.82423216        1.67352296        2.32632441
 C            2.88365091        0.37836701        2.33213872
 C            2.06602887        1.35374139        1.75677880
 C            3.08023541       -1.92483672        1.96329937
 C            3.48334522       -0.61872919        1.46643337
 C            2.52139379       -2.82654064        1.07266428
 C            0.37300957       -2.65438698        2.26805942
 C            1.13623164       -3.23957896        1.25967130
 C           -1.66573639       -1.50028010        2.93791647
 C           -0.96500380       -2.30182727        2.01447594
 C           -2.90343661       -0.97818191        2.59056158
 C           -1.90280392        1.24232082        2.82113655
 C           -3.03388402        0.46961516        2.54764814
 C           -0.13953254        2.32114532        1.55082101
 C           -1.50025453        2.20321020        1.89055007
 C            0.25528981        2.96103600        0.37066163
 C            2.31886265        1.71474555        0.43257667
 C            1.50063310        2.66381005       -0.18584899
 C            3.47138984       -0.37662375        0.09938615
 C            3.18194675        0.91667751       -0.33086407
 C            2.73098324       -2.62042079       -0.34780133
 C            3.31924199       -1.44351950       -0.79409092
 C            0.55740898       -3.45092119       -0.05133142
 C            1.56558728       -3.12749462       -1.05197024
 C           -1.55381113       -2.65127552        0.78269282
 C           -0.75977535       -3.09223052       -0.27834546
 C           -3.61964127       -1.52858713        1.46707118
 C           -2.88516074       -2.33443866        0.52138875
 C           -3.89788463        0.81009784        1.42785933
 C           -4.22653036       -0.42557566        0.73723724
 C           -2.47619997        2.75777686        1.06942038
 C           -3.59969106        1.93233144        0.66997368
 C           -0.68075882        3.63610561       -0.41062147
 C           -2.08604541        3.52141126       -0.09392321
 C           -0.59217440        3.52316848       -1.85303475
 C            1.76005130        3.05634151       -1.49932126
 C            0.64142835        3.24579759       -2.40325974
 C            3.46774563        1.25033806       -1.64694260
 C            2.77776702        2.36172668       -2.26245414
 C            3.23266613       -1.16935147       -2.15442629
 C            3.51195016        0.17812710       -2.61827788
 C            1.18340897       -2.52774288       -2.25389421
 C            2.07253065       -1.65877778       -2.88708873
 C           -1.16195530       -2.85349955       -1.58933949
 C           -0.17211788       -2.44664607       -2.57153049
 C           -3.25365595       -1.87788478       -0.80818960
 C           -3.85379377       -0.56516312       -0.66009311
 C           -2.36798160       -2.08890994       -1.84750699
 C           -3.50931689        1.79414811       -0.77422580
 C           -2.73577146        2.91652000       -1.25157923
 C           -1.70708109        2.68185280       -2.23991422
 C           -3.29999511        0.53115259       -1.32117851
 C           -0.68288923       -1.25353268       -3.23587177
 C           -1.99250370       -0.96395980       -2.68629853
 C           -1.44501826        1.37972548       -2.66594229
 C           -2.28638005        0.32989852       -2.27145843
 C            0.72644389        2.15336791       -3.35077559
 C            2.14013397        1.86513907       -3.47553611
 C            2.55266740        0.49510497       -3.66283940
 C            1.54133395       -0.54076829       -3.64987930
 C           -0.19855752        1.10893304       -3.25101010
 C            0.19297174       -0.21379215       -3.51406644
