   70
C70 / DATE: 7/ 1/2024 / Origin: Program Fullerene / C70 from database
 C            1.30762592       -0.26988483        5.56298906
 C            0.48287011       -1.44526459        5.36806120
 C            1.11588323       -2.26685893        4.35033201
 C            2.44831496       -0.38037554        4.66940609
 C            2.23371823       -1.52743547        3.80428820
 C            2.62152865        0.91390821        4.05692545
 C            0.53893371        0.88590644        5.12928350
 C            1.42515946        1.70261941        4.33829073
 C           -0.78790328       -1.00467819        4.82097510
 C           -0.68514080        0.40679495        4.51416409
 C            0.07658225       -2.67925381        3.43329680
 C           -1.10975155       -1.89992974        3.73343706
 C            0.39110023       -2.82403912        2.08771427
 C            2.30549638       -1.37645419        2.41653198
 C            1.57808961       -2.25415859        1.60228964
 C            2.83302682        0.97294088        2.62563068
 C            2.80679280       -0.19231885        1.85953510
 C            0.94660771        2.20669939        3.06653933
 C            2.05931358        2.09655903        2.15170415
 C           -1.03182758        0.82466906        3.22515499
 C           -0.31711565        1.84977890        2.59154128
 C           -1.79776785       -1.39458768        2.64131416
 C           -1.84504236       -0.00535514        2.44946800
 C           -0.68270790       -2.93357873        1.20855619
 C           -1.83584415       -2.20129570        1.51076840
 C           -0.39343235       -3.27108579       -0.10612440
 C            1.78759524       -2.22217255        0.21957573
 C            0.93622509       -2.97221727       -0.59398821
 C            2.73327524       -0.02955945        0.47538507
 C            2.48825116       -1.14341557       -0.32530073
 C            1.76882788        2.13097117        0.80441984
 C            2.43564383        1.24324779       -0.02657353
 C           -0.58013348        2.11298891        1.24244317
 C            0.48711746        2.49857552        0.42682786
 C           -2.34613826        0.47855441        1.23845773
 C           -1.72785548        1.58350627        0.64289402
 C           -2.70110528       -1.81427664        0.50120349
 C           -3.05447984       -0.41039707        0.43998733
 C           -1.33925615       -2.96887685       -1.16628677
 C           -2.49850404       -2.28501619       -0.85594597
 C            0.82889385       -2.67944740       -2.01208614
 C           -0.58388135       -2.58632347       -2.34828974
 C            2.56500581       -0.98696923       -1.70781822
 C            1.71301834       -1.78218484       -2.57803080
 C            2.25343809        1.41119189       -1.39550802
 C            2.58629005        0.36192563       -2.24294744
 C            0.26299427        2.67048111       -0.92957117
 C            1.29192870        2.33268583       -1.81294559
 C           -1.99596424        1.90765315       -0.69947809
 C           -1.04797607        2.67567152       -1.38804130
 C           -3.30606485       -0.08260261       -0.94177518
 C           -2.96318297       -1.24235272       -1.74755850
 C           -2.94257582        1.16356811       -1.42333352
 C           -1.03455895       -1.54262671       -3.16173048
 C           -2.32288079       -1.01627764       -2.96112021
 C            1.25077989       -0.92257024       -3.65400864
 C            2.00790429        0.31587547       -3.57541235
 C           -0.10736356       -0.86954948       -3.97399288
 C            1.10534674        2.54535148       -3.17412282
 C            1.43672542        1.46850111       -4.09661166
 C           -1.28311805        3.07237205       -2.70115491
 C           -0.14911209        3.13466774       -3.60863037
 C           -3.00982227        1.31437644       -2.80566681
 C           -2.69080171        0.14966852       -3.62292552
 C           -2.37930921        2.46085637       -3.41492346
 C           -0.53557795        0.13901970       -4.83569449
 C            0.30754440        1.31302995       -4.99503932
 C           -0.52636630        2.49289212       -4.85480349
 C           -1.90413203        0.59634273       -4.74741502
 C           -1.90115517        2.04953958       -4.72453592
