   70
C70 / DATE: 7/ 1/2024 / Origin: Program Fullerene / C70 from database
 C            1.59410408       -0.03398178        4.65686482
 C            0.79417214       -1.23197086        4.49248562
 C            1.25845433       -1.93220357        3.30555208
 C            2.60550336       -0.04309268        3.62103835
 C            2.45506862       -1.25858977        2.84052293
 C            2.52313813        1.21847095        2.91093683
 C            0.72789550        1.10676996        4.40987432
 C            1.25732704        1.83234496        3.27283729
 C           -0.59416551       -0.83013215        4.54375756
 C           -0.63056702        0.61516124        4.33595788
 C           -1.50994917       -1.60985488        3.85697555
 C            0.31699648       -2.36732419        2.37528241
 C           -1.02085877       -2.45154631        2.76853682
 C            0.63909249       -2.36102851        1.01103521
 C            2.68359287       -1.16207427        1.47629433
 C            1.88802528       -1.89246240        0.59064761
 C            2.87211003        1.21370602        1.57056212
 C            3.28180603        0.00377332        1.01208247
 C            2.25892799        2.14048042        0.73391116
 C            0.39071028        2.21722140        2.25133035
 C            0.92576553        2.47941191        0.98277709
 C           -1.48598058        1.13538390        3.36605439
 C           -0.98876805        2.02593326        2.40211538
 C           -2.72374966       -0.96797761        3.39313287
 C           -2.67750714        0.45503388        3.12073983
 C           -2.05805877       -2.51028391        1.75787743
 C           -3.13725456       -1.63177890        2.17264774
 C           -0.35402109       -2.62359559        0.06365754
 C           -1.69797384       -2.49954318        0.42112526
 C           -0.03261248       -2.66490233       -1.29574366
 C            2.17218120       -1.80784518       -0.77602570
 C            1.23792738       -2.24874283       -1.71813641
 C            3.74388893        0.01378049       -0.29220291
 C            3.24501159       -1.01087960       -1.19062550
 C            2.78325733        2.29134140       -0.54249912
 C            3.70619269        1.27383304       -1.01112577
 C            1.89868196        2.62424860       -1.64142246
 C            0.08063485        2.84253215       -0.07347188
 C            0.54999287        2.83566200       -1.39150469
 C           -1.84404599        2.50597730        1.41564266
 C           -1.28426010        2.98071588        0.16178897
 C           -3.39989520        0.68095003        1.88193280
 C           -3.58638892       -0.61033517        1.23915017
 C           -3.05818412        1.76910876        1.10035585
 C           -2.57710304       -1.91727422       -0.48356508
 C           -3.24925659       -0.75738014       -0.10435898
 C           -1.09244696       -2.73652664       -2.20528835
 C           -2.36184893       -2.15156418       -1.82693502
 C           -0.89329567       -2.41806747       -3.60321838
 C            1.50500042       -2.03987762       -3.07522479
 C            0.43111520       -2.06672935       -4.04795255
 C            3.26178065       -0.45171757       -2.53294530
 C            3.40180405        0.98556109       -2.39911882
 C            2.29085923        1.82909454       -2.79870380
 C            2.35514225       -0.93229224       -3.45861708
 C            0.36334129       -0.74367336       -4.65449729
 C            1.30506267        1.29172997       -3.62312029
 C            1.49798118        0.01529472       -4.15765885
 C           -0.34590747        2.68329338       -2.44744649
 C            0.02453677        1.84319775       -3.57718059
 C           -2.22723527        2.63921541       -0.88986616
 C           -3.12244923        1.64021699       -0.34370487
 C           -3.16397875        0.37270989       -0.92451699
 C           -1.75682840        2.46751996       -2.17880629
 C           -2.61995326       -1.07330373       -2.75937650
 C           -1.78482315       -1.31241858       -3.92543920
 C           -0.97748069       -0.22978273       -4.45239462
 C           -1.14219058        1.04561047       -3.93280731
 C           -2.76311437        0.21719665       -2.25536981
 C           -2.16492933        1.28827182       -2.92461217
