   70
C70 / DATE: 7/ 1/2024 / Origin: Program Fullerene / C70 from database
 C            1.29305117        0.23019906        4.84012197
 C            2.46121237       -0.07084476        4.03912024
 C            2.43642091       -1.49136653        3.73128222
 C            0.45124108       -0.95372613        4.86033763
 C            1.19755163       -2.04398248        4.25493663
 C           -0.83784485       -0.59172029        4.28816656
 C            0.45948780        1.34731488        4.45251256
 C           -0.89160652        0.84777819        4.23353048
 C            0.81257328        2.12405440        3.27829333
 C            2.67310401        0.64636242        2.79209322
 C            1.86154821        1.72584626        2.44354178
 C            2.73532608       -1.64845849        2.31359825
 C            3.00187257       -0.33024770        1.77071360
 C            1.99226353       -2.55052411        1.55824389
 C            0.50153363       -2.94831107        3.46847257
 C            1.09836336       -3.39257514        2.22362958
 C           -1.32752595       -1.34471500        3.22436735
 C           -0.88793813       -2.66092164        3.15019443
 C           -1.81667071       -0.70601482        2.06483768
 C           -1.39388995        1.47444173        3.03205225
 C           -0.44577781        2.50458610        2.66405757
 C           -1.92878107        0.69409270        2.01331678
 C           -0.42043719        2.90343087        1.33991331
 C            1.80158525        2.10850422        1.10314112
 C            0.82268741        3.02941088        0.74029285
 C            2.63876582       -0.05722135        0.46093585
 C            2.30097110        1.24608269        0.11822118
 C            1.84590796       -2.33110838        0.18034953
 C            2.22835544       -1.09377653       -0.36985383
 C            1.06544410       -3.21908388       -0.57371948
 C            0.02071439       -4.01039964        1.48230485
 C           -1.22592967       -3.46101972        1.99840897
 C           -0.00513069       -3.84440037        0.05140946
 C           -2.12984680       -1.45838970        0.91700087
 C           -1.90555721       -2.82738755        0.89087013
 C           -1.34150904       -3.40370061       -0.30880691
 C           -2.35737924       -0.80842157       -0.29709538
 C           -2.12736515        1.31439761        0.77955334
 C           -1.48677975        2.53422464        0.52471791
 C           -2.60469606        0.55970974       -0.28474462
 C           -1.53577621        3.07902912       -0.75881438
 C            0.85568500        3.54131140       -0.54421549
 C           -0.41228355        3.78018181       -1.20811524
 C            2.08137566        1.55730893       -1.22391281
 C            1.68769492        2.85906318       -1.51262634
 C            1.97563498       -0.81422241       -1.71381239
 C            1.80368785        0.51948172       -2.13012740
 C            0.90838262       -2.98711014       -1.93202225
 C            1.58762255       -1.86279604       -2.53540779
 C           -1.46787662       -2.71948909       -1.50851035
 C           -2.10342740       -1.46957446       -1.51296047
 C           -0.45491711       -2.94331233       -2.43138022
 C           -2.21690730       -0.76479077       -2.72065056
 C           -2.94242200        1.20672049       -1.46337534
 C           -2.45584133        2.55810992       -1.66848929
 C           -2.81366479        0.49230531       -2.71893893
 C           -2.27937985        2.75325297       -3.09856659
 C           -2.43859136        1.45963527       -3.74237248
 C           -0.10600303        3.86701092       -2.62424559
 C            1.16477501        3.18181686       -2.82067624
 C           -1.05079761        3.34392137       -3.58694236
 C            1.29080668        0.80526147       -3.41347481
 C           -1.25423068        1.20876115       -4.54780678
 C            0.94059701        2.10841059       -3.75638843
 C           -0.35738337        2.33917210       -4.37457923
 C            0.88402474       -1.58253770       -3.76686871
 C           -0.44024179       -2.17873580       -3.65240321
 C           -1.40358123       -1.11003072       -3.80237004
 C            0.69349786       -0.20644874       -4.15560494
 C           -0.70577499       -0.06382529       -4.52466104
