   70
C70 / DATE: 7/ 1/2024 / Origin: Program Fullerene / C70 from database
 C            1.68225389        0.02213594        4.44538614
 C            0.86170951       -1.17417567        4.43640108
 C            1.32280032       -2.03215794        3.35833548
 C            2.62989269       -0.08172195        3.34956647
 C            2.46309314       -1.37918321        2.73444257
 C            2.47863006        1.08693136        2.50760895
 C            0.81078903        1.14807042        4.16583204
 C            1.34607547        1.84071241        3.01552059
 C           -0.52662982       -0.75674614        4.43184418
 C           -0.55128382        0.65873448        4.09307325
 C           -1.44637469       -1.59253211        3.82177001
 C            0.37153944       -2.65945079        2.54911477
 C           -0.95402925       -2.67881919        2.98456513
 C            0.67465953       -2.89157224        1.19733084
 C            2.58945024       -1.47415931        1.36001196
 C            1.94279280       -2.52715931        0.73158424
 C            2.59766317        0.93294264        1.12472453
 C            2.89184398       -0.33094260        0.60808191
 C            1.97385760        1.86735705        0.29461983
 C            0.46867751        2.36374042        2.08454113
 C            0.98894027        2.69160495        0.84442078
 C           -1.36528232        1.09389097        3.04666080
 C           -0.90313080        2.09832993        2.18218425
 C           -2.56254959       -0.99736864        3.11306864
 C           -2.47896081        0.32808515        2.69083459
 C           -2.00727294       -3.00586570        2.04731226
 C           -3.04725799       -1.99998380        2.18184904
 C           -0.34597697       -3.12609473        0.26050783
 C           -1.67446755       -3.10804842        0.64624957
 C           -0.07520781       -2.90932234       -1.08295901
 C            2.28243176       -2.78311237       -0.58832389
 C            1.22134887       -3.14462386       -1.50204169
 C            3.05324749       -0.47835657       -0.76978226
 C            3.07138185       -1.78080268       -1.27322270
 C            2.06338653        1.71364512       -1.09312690
 C            2.72149381        0.58927897       -1.61627364
 C            1.39250895        2.61057363       -1.94196175
 C            0.21427432        3.48514070        0.02390460
 C            0.46734088        3.49645683       -1.40014398
 C           -1.75290431        2.61350895        1.19606718
 C           -1.22249830        3.47957700        0.23801619
 C           -3.28062104        0.73870197        1.63089455
 C           -2.95152242        1.95830518        0.91704685
 C           -3.43807739       -1.57781664        0.84950029
 C           -2.58316012       -2.26366665       -0.10628457
 C           -3.72085073       -0.24043019        0.64245701
 C           -0.88789598       -2.01305992       -1.79385266
 C           -2.08470285       -1.57816809       -1.21893123
 C           -0.39748501       -1.36453722       -2.93227620
 C            1.62427726       -2.73267681       -2.82851556
 C            2.88632243       -2.01953509       -2.68946009
 C            0.73328233       -1.87404532       -3.57542508
 C            2.86317760        0.44420402       -2.99819597
 C            2.83841250       -0.88323847       -3.57842857
 C            1.59536732       -0.98550939       -4.32593951
 C            1.24622726        2.30442856       -3.29179361
 C            2.05554778        1.25954928       -3.87582977
 C            1.14206313        0.36034148       -4.57077516
 C           -0.91036639       -0.10844714       -3.28595731
 C           -0.09830737        2.13218757       -3.81958774
 C           -0.19283332        0.72764410       -4.14670289
 C           -0.81369532        3.64655636       -2.06917820
 C           -1.85872600        3.56892094       -1.06396033
 C           -1.14577559        2.70829730       -3.12514566
 C           -3.36359149        1.75879505       -0.46705182
 C           -3.46250741        0.32792101       -0.66374329
 C           -2.56917028       -0.30376086       -1.52986915
 C           -1.94288573        0.45160548       -2.52590849
 C           -2.77427928        2.51788767       -1.46046925
 C           -2.17648001        1.83102850       -2.59421157
