   70
C70 / DATE: 7/ 1/2024 / Origin: Program Fullerene / C70 from database
 C            1.20927442       -0.06751160        4.39767658
 C            2.43671030       -0.33166559        3.68757679
 C            2.36562429       -1.69961859        3.20066052
 C            0.37314392       -1.25515403        4.28162637
 C            0.98718137       -2.11694621        3.29499484
 C           -0.98170302       -0.80071870        4.04981685
 C            0.39769845        1.05876167        3.98453103
 C           -0.97461582        0.64814637        4.18958975
 C            0.71675543        1.76823180        2.82538145
 C            2.77393711        0.50272726        2.55193264
 C            1.86272843        1.43764266        2.08092065
 C            2.98288939       -1.71759495        1.89854911
 C            3.41775717       -0.36384784        1.59110838
 C            2.38230913       -2.43876725        0.87551135
 C            0.28999495       -2.39738744        2.12196465
 C            0.99360524       -2.65212683        0.92946864
 C           -1.72521592       -1.36907514        3.01921056
 C           -1.09743790       -2.21632792        2.09395695
 C           -2.92855363       -0.75331216        2.68042045
 C           -1.97826021        1.37560867        3.57034915
 C           -3.10572349        0.64941400        3.01199986
 C           -0.26479829        2.58831281        2.25849963
 C           -1.60554759        2.40690368        2.61260904
 C            0.01549783        3.27318883        1.07992817
 C            1.98811301        1.87479471        0.76390223
 C            1.22819831        2.95586874        0.34993049
 C            3.44362567       -0.00234155        0.24774322
 C            2.67200506        1.09368187       -0.18082762
 C            2.99463471       -2.31053250       -0.36269230
 C            3.66302673       -1.04962547       -0.63807889
 C            2.28052893       -2.68755398       -1.56008506
 C            0.28225885       -2.95000775       -0.24408102
 C            0.90788097       -2.87345890       -1.49298308
 C           -1.81754592       -2.69217928        1.00572909
 C           -1.10095449       -3.10459568       -0.18788949
 C           -3.50415467       -0.96107044        1.36474637
 C           -3.01419321       -1.98573089        0.57639651
 C           -3.53472449        1.33789821        1.80647349
 C           -2.62039388        2.43525932        1.56876035
 C           -3.70138663        0.34766552        0.76289027
 C           -1.04732280        3.43669770        0.10316868
 C           -2.21948122        2.70759941        0.26697199
 C            0.96234780        3.14253315       -1.06238174
 C           -0.43626574        3.52639618       -1.20723099
 C            2.45977135        1.31514966       -1.55650203
 C            1.53554801        2.27401273       -1.98432753
 C            3.58625679       -0.80473775       -2.05551817
 C            2.83959582       -1.90269469       -2.64912565
 C            2.97728448        0.42578984       -2.49921386
 C            1.94292493       -1.33587928       -3.63978928
 C            2.18733374        0.09923182       -3.67211368
 C            0.14484354       -2.68022183       -2.64579599
 C            0.63901775       -1.80969710       -3.70412038
 C           -1.91077651       -2.71734712       -1.33184497
 C           -2.88856610       -1.76423009       -0.85062754
 C           -1.28580211       -2.46524878       -2.53901728
 C           -3.16138621        0.60692198       -0.49356060
 C           -2.65972347        1.88232902       -0.77578579
 C           -2.87006976       -0.46166464       -1.34761278
 C           -1.15056863        3.07288539       -2.30490184
 C           -2.27673837        2.17819414       -2.08053599
 C            0.96806680        2.16959931       -3.25595627
 C            1.16493248        0.96106944       -4.03608051
 C           -0.41070170        2.57776273       -3.44861159
 C           -0.43831686       -0.90389135       -4.07152210
 C           -1.59315960       -1.23194225       -3.24671637
 C           -2.30165226       -0.21672003       -2.59871095
 C           -2.18188057        1.09614698       -3.04433962
 C           -0.15386190        0.42707506       -4.34848382
 C           -1.13182020        1.43792492       -3.98793133
