   70
C70 / DATE: 7/ 1/2024 / Origin: Program Fullerene / C70 from database
 C            1.47971352       -0.29056599        5.21627850
 C            0.63174772       -1.46650760        5.12048994
 C            1.23399298       -2.36677778        4.15575194
 C            2.57542362       -0.45008197        4.27625099
 C            2.49134213       -1.78571788        3.71642464
 C            2.56416911        0.68825681        3.36722942
 C            0.69990283        0.84994988        4.77838916
 C            1.45528373        1.54542782        3.74752236
 C           -0.65327745       -1.05018106        4.58346046
 C           -0.63502895        0.38868294        4.43668701
 C            0.22911993       -2.68360927        3.15248519
 C           -0.93110234       -1.84603976        3.40445851
 C            0.63593572       -2.86006300        1.83483300
 C            2.85208501       -1.95744533        2.39032247
 C            1.99119811       -2.75347301        1.53501713
 C            2.81321357        0.47278833        2.01226843
 C            3.22778367       -0.79108447        1.60275394
 C            2.25234548        1.33638612        1.06769399
 C            0.73399555        2.17055098        2.73982893
 C            1.31009826        2.29008997        1.47593303
 C           -1.21815022        0.94258898        3.30575869
 C           -0.65290609        2.11204955        2.81693678
 C           -1.54698156       -1.23399122        2.31695070
 C           -1.89185121        0.11751035        2.39550927
 C           -0.28446842       -2.62630662        0.81350044
 C           -1.38573813       -1.80632639        1.06078737
 C            0.11642203       -2.81835218       -0.50688629
 C            2.37605153       -2.43479897        0.17724784
 C            3.08286717       -1.16833312        0.20657356
 C            1.45718857       -2.61053873       -0.83718487
 C            2.44806412        1.08925348       -0.29541035
 C            2.72836839       -0.20591466       -0.73670703
 C            2.03564638        2.04096714       -1.21544475
 C            0.63185254        3.05058864        0.51943222
 C            1.07537112        3.04606446       -0.80124599
 C           -1.38198873        2.81760241        1.88224853
 C           -0.66103810        3.48051476        0.81334160
 C           -2.49185524        0.73041016        1.28803887
 C           -2.48836788        2.12569103        1.25587375
 C           -2.07681477       -1.26937078       -0.01821088
 C           -2.63282369        0.01362550        0.08695833
 C           -0.83117478       -2.67846139       -1.52296790
 C           -1.95681828       -1.88262216       -1.26484352
 C           -0.37066336       -2.82971223       -2.83281471
 C            1.72504405       -1.96672586       -2.03249341
 C            2.20093679       -0.64760035       -1.96110706
 C            0.97547312       -2.37687064       -3.11955496
 C            1.69893608        1.62838741       -2.56584323
 C            1.83184483        0.29508596       -2.93468176
 C            0.13408386        3.24650402       -1.89837779
 C            0.49921108        2.34328026       -2.97050329
 C           -1.61856271        3.68390681       -0.25802649
 C           -2.75862441        2.82035222        0.01729825
 C           -1.20581318        3.45336510       -1.62827680
 C           -3.13024970        0.65732792       -1.05975803
 C           -3.00985746        2.03823238       -1.16580062
 C           -2.18998722        2.57792762       -2.23850246
 C           -2.75576346       -1.41735556       -2.30359443
 C           -3.19847377       -0.04173486       -2.25950007
 C           -1.21072032       -2.46069185       -3.95245822
 C           -2.41067716       -1.70566940       -3.68516498
 C            0.91734445       -1.52742290       -4.28088543
 C            1.16245544       -0.11791502       -4.08636022
 C           -0.39661143       -1.68897766       -4.87906208
 C           -0.48136541        1.65390334       -3.68379300
 C           -1.82509687        1.71203587       -3.26624169
 C           -2.65514997        0.60436511       -3.44343654
 C           -2.29946556       -0.43290315       -4.38541039
 C           -0.04320301        0.59801750       -4.48407650
 C           -0.99384170       -0.37154801       -4.99590950
