   70
C70 / DATE: 7/ 1/2024 / Origin: Program Fullerene / C70 from database
 C            1.17365076        0.05982811        4.40746717
 C            2.41343143       -0.22778315        3.73012424
 C            2.40753036       -1.64444713        3.41222985
 C            0.35451720       -1.14659432        4.36237521
 C            1.03141191       -2.09347315        3.50985315
 C           -0.98357085       -0.73332887        4.00953476
 C            0.34571910        1.13756790        3.90915667
 C           -1.01221994        0.71049689        4.16656912
 C            0.63215943        1.73501456        2.67803673
 C            2.70805697        0.47754197        2.50157877
 C            1.77132211        1.35801444        1.95238545
 C            3.08731788       -1.80745053        2.14282346
 C            3.36815328       -0.47533688        1.62682104
 C            2.59275022       -2.75629180        1.26266786
 C            0.40229623       -2.56104843        2.35723788
 C            1.20440738       -3.17839224        1.40279953
 C           -1.60709802       -1.29440119        2.89645274
 C           -0.85020961       -2.04644352        1.98033851
 C           -2.80199117       -0.70909861        2.48523737
 C           -2.03613485        1.40665222        3.55507001
 C           -3.10704780        0.63228597        2.95520579
 C           -0.39138991        2.43345523        2.03381067
 C           -1.67757242        2.43040830        2.58933036
 C           -0.20858889        2.90341635        0.73100131
 C            1.84722811        1.63618122        0.58561170
 C            0.88428308        2.45053409       -0.02277480
 C            3.30176665       -0.25911731        0.25709411
 C            2.78843516        0.95641152       -0.19202409
 C            2.84742496       -2.57946986       -0.15293287
 C            3.31920952       -1.35654482       -0.61056192
 C            0.68299951       -3.43051696        0.07661279
 C            1.76441185       -3.22058960       -0.87501142
 C           -1.31592726       -2.22190245        0.66393155
 C           -0.59315037       -2.99951117       -0.25196108
 C           -3.19573362       -0.78172946        1.09353288
 C           -2.40699230       -1.48116550        0.20494252
 C           -3.62677648        1.39780547        1.83651808
 C           -2.83297429        2.60774399        1.72691405
 C           -3.70461066        0.51683952        0.68389304
 C           -1.28471234        3.52585264        0.09887018
 C           -2.62972185        3.13214347        0.46539458
 C           -1.29196978        3.65452305       -1.34052051
 C            0.97808448        2.74603227       -1.39440127
 C           -0.14567338        3.18576650       -2.07951419
 C            2.95021445        1.29311406       -1.52476868
 C            1.96030258        2.13313519       -2.16191616
 C            3.27900154       -1.12834595       -1.98039119
 C            3.30471122        0.24085571       -2.45691843
 C            1.45453336       -2.78032477       -2.15937170
 C            2.30903786       -1.86313915       -2.78286046
 C           -0.93058522       -2.96015670       -1.60547533
 C            0.13733929       -2.91021358       -2.59459050
 C           -2.49868121       -1.16343093       -1.14016549
 C           -1.98174279       -2.06531297       -2.05168780
 C           -3.34830321        1.02306876       -0.56795037
 C           -3.14720841        2.39978171       -0.67845776
 C           -2.45659788        2.92955594       -1.83263699
 C           -2.78148381        0.15694468       -1.51755911
 C           -0.63646920        2.38215836       -3.18624988
 C           -1.99843875        2.01024525       -2.84814417
 C           -2.30465911        0.66208296       -2.74097153
 C            1.56540841        1.49209915       -3.40975045
 C            2.41999184        0.33682079       -3.60501914
 C            1.80814443       -0.95933401       -3.81301742
 C            0.20937423        1.41624050       -3.72778356
 C           -0.33417029       -2.12105425       -3.71785722
 C           -1.65159710       -1.60877223       -3.38102643
 C           -1.66112722       -0.18612017       -3.63402315
 C            0.47419250       -1.01350648       -4.18524533
 C           -0.34368931        0.19372941       -4.12788267
