   70
C70 / DATE: 7/ 1/2024 / Origin: Program Fullerene / C70 from database
 C            1.29778030       -0.04491182        4.96454039
 C            0.54352339       -1.24544569        4.65009564
 C            1.45600642       -2.19381317        4.05842594
 C            2.58589789       -0.15306658        4.30099485
 C            2.72111318       -1.50728631        3.82179078
 C            2.67553920        0.92511323        3.34061770
 C            0.59270409        1.08622722        4.38235965
 C            1.50054736        1.77044581        3.49703339
 C           -0.61885325       -0.84607834        3.88651460
 C           -0.64176998        0.60400032        3.81690646
 C           -0.98627876       -1.55260628        2.74397687
 C            1.07995945       -2.83245203        2.81042409
 C           -0.13287002       -2.51841906        2.18923556
 C            3.06465888       -1.71975146        2.42772415
 C            2.28113001       -2.86314243        2.00231533
 C            3.14362748        0.68309901        2.04850977
 C            3.19564202       -0.63235896        1.55509829
 C            3.00897224        1.73453132        1.15135894
 C            0.99271679        2.37960356        2.35463801
 C            1.91919744        2.67191303        1.36722678
 C           -1.10449392        1.17717427        2.63832748
 C           -0.34323528        2.15090826        1.97565883
 C           -1.92109431       -0.95452276        1.91202859
 C           -2.01133338        0.43955478        1.89265882
 C           -2.36871792       -1.66306422        0.81146819
 C           -0.30078631       -2.88119570        0.84384123
 C           -1.45131755       -2.48257193        0.15329528
 C            2.14322448       -3.08554176        0.64758955
 C            0.81003527       -3.30626620        0.11390850
 C            3.09784600       -0.87527474        0.17554161
 C            2.79201543       -2.16479746       -0.26347827
 C            3.09639144        1.48820696       -0.27213548
 C            3.08853877        0.18450743       -0.73831877
 C            1.45854747        3.12466621        0.07985736
 C            2.27630065        2.48858170       -0.93922792
 C           -0.79598197        2.60680560        0.72320298
 C            0.09995917        3.24675527       -0.14975989
 C           -2.65493778        1.05845282        0.83043310
 C           -2.04591555        2.17086654        0.24606415
 C           -3.44315726       -1.13206986        0.11224892
 C           -3.58857209        0.31144869        0.11316386
 C           -3.71632148       -1.61088025       -1.22476243
 C           -1.46860599       -2.55336354       -1.24636389
 C           -2.65082395       -2.28958466       -1.93011894
 C            0.87862068       -3.01255772       -1.30693382
 C            2.15277227       -2.35280052       -1.55078030
 C           -0.26208163       -2.54919385       -1.94903318
 C            2.73321474       -0.03726932       -2.06804061
 C            2.20947443       -1.32882036       -2.47724366
 C            1.69575406        2.19889481       -2.17309197
 C            2.00538935        0.99320206       -2.79958088
 C           -0.27175075        3.48090863       -1.46602485
 C            0.52101161        2.86610708       -2.52140823
 C           -2.55560754        2.68518698       -0.94549161
 C           -1.66386056        3.39000948       -1.83616771
 C           -3.99140799        0.72384770       -1.21948403
 C           -4.14093683       -0.47559191       -2.02777946
 C           -3.41999537        1.86109332       -1.77317939
 C           -2.56868360       -1.70938532       -3.25564872
 C           -3.45365456       -0.55595541       -3.30118656
 C           -0.12863478       -1.77023477       -3.10429758
 C            1.06219703       -1.09053665       -3.33341039
 C            1.01037654        0.33063579       -3.63181759
 C           -1.26809344       -1.29660239       -3.74232522
 C           -0.40440972        2.26095718       -3.46626506
 C           -1.73390078        2.74814685       -3.13910247
 C           -2.83570088        1.80903342       -3.10996362
 C           -2.67953609        0.58660323       -3.75060999
 C           -0.22749600        0.93189634       -3.84511350
 C           -1.33986825        0.11802853       -4.08092963
