   70
C70 / DATE: 7/ 1/2024 / Origin: Program Fullerene / C70 from database
 C            1.26088125        0.02761955        5.02260744
 C            2.48598644        0.03505135        4.24267075
 C            2.53722798       -1.21257558        3.50237826
 C            0.45463342       -1.09622889        4.56972494
 C            1.23855457       -1.84791078        3.61010899
 C           -0.83530795       -0.58404393        4.15147091
 C            0.41771162        1.20614266        5.01876512
 C           -0.90486334        0.80397279        4.56353858
 C            0.82271905        2.35984951        4.23507554
 C            2.73749789        1.11546750        3.29956332
 C            1.92939329        2.24498477        3.29587416
 C            3.03953282       -0.92467661        2.16920175
 C            3.12766854        0.51800821        2.03384941
 C            2.52031938       -1.64307266        1.09686478
 C            0.63740434       -2.27030543        2.43238427
 C            1.46096386       -2.51733800        1.33930445
 C           -1.31674963       -0.93259593        2.89288794
 C           -0.70994232       -1.97501940        2.19493155
 C           -2.10526249       -0.02474501        2.18857014
 C           -1.36020710        1.78445532        3.59827084
 C           -0.33924700        2.80796728        3.48925272
 C           -1.95046843        1.34679955        2.42060171
 C            1.49381693        2.80165791        2.02638760
 C            0.09953016        3.18463427        2.15578329
 C            2.71748557        1.08810253        0.83141478
 C            1.90465968        2.22417460        0.82770752
 C            2.64656124       -1.09783646       -0.17966874
 C            2.74110757        0.29328519       -0.31324447
 C            2.26569436       -1.87279117       -1.27748255
 C            0.90959002       -3.20486317        0.27112305
 C            1.41184493       -2.95088036       -1.06795313
 C           -1.28060967       -2.40154433        0.99436304
 C           -0.53594080       -3.25984013        0.18637620
 C           -2.68952190       -0.43233465        0.98795639
 C           -2.33245581       -1.66730190        0.43398807
 C           -3.25892549        0.54606081        0.17397087
 C           -1.91498855        2.20127895        1.32392439
 C           -0.74472849        2.92053863        1.08197262
 C           -2.74040593        1.89678019        0.25447833
 C            1.16357153        2.49817655       -0.32043474
 C           -0.18397911        2.85840990       -0.19256795
 C            2.44098992        0.88085722       -1.53873122
 C            1.62658007        2.01915412       -1.54243697
 C            2.35591980       -1.32966584       -2.55463738
 C            2.57317495        0.09663046       -2.68012683
 C            1.37273519       -1.70820410       -3.55955322
 C            0.31799379       -3.18760949       -1.99824559
 C           -0.88499327       -3.43142726       -1.21066062
 C            0.25315240       -2.44120898       -3.17386647
 C           -2.85452942       -2.04487631       -0.80696513
 C           -2.10369038       -2.95419282       -1.65809253
 C           -3.52966844        0.26506625       -1.22272761
 C           -3.47008905       -1.04436514       -1.66432964
 C           -2.33368143        2.28430123       -1.08503555
 C           -1.03698565        2.74337964       -1.29253194
 C           -2.90803711        1.32147996       -2.01296871
 C            0.93058076        2.39253059       -2.68760880
 C           -0.48985962        2.64791278       -2.56759200
 C            1.99316107        0.52569480       -3.93716328
 C            1.21764568       -0.58445234       -4.46828334
 C            1.15326939        1.69962342       -3.94098448
 C           -2.21889975        1.01403590       -3.18514207
 C           -1.16245285        1.83529466       -3.57109872
 C           -0.11722573       -0.09945800       -4.76756527
 C           -0.14616972        1.32177979       -4.47449671
 C           -0.98694355       -2.15849204       -3.74948690
 C           -2.20467970       -2.48082378       -3.02449788
 C           -3.05044925       -1.29868434       -3.02836465
 C           -1.20765021       -0.87840904       -4.40708959
 C           -2.34995025       -0.25338497       -3.75570903
