   70
C70 / DATE: 7/ 1/2024 / Origin: Program Fullerene / C70 from database
 C            1.06557903       -0.05162023        4.78297917
 C            2.33438041       -0.38751614        4.17689310
 C            2.26571328       -1.77930585        3.76507813
 C            0.23472915       -1.24788300        4.74338974
 C            0.87035932       -2.16940798        3.82781773
 C           -1.11521430       -0.82432830        4.46201048
 C            0.28280272        1.02200771        4.20244094
 C           -1.09424924        0.62755545        4.37988332
 C            0.67076177        1.58053084        2.97972876
 C            2.77027080        0.37191660        3.02573161
 C            1.99571088        1.42530604        2.54178002
 C            2.95252422       -1.90103548        2.49202388
 C            3.34113645       -0.56450537        2.07056046
 C            2.41647128       -2.75504186        1.54758745
 C            0.23047429       -2.53980534        2.64255964
 C            1.00989632       -3.13000409        1.65753143
 C           -1.75351192       -1.30059647        3.24895664
 C           -0.99796516       -1.96068328        2.28674333
 C           -2.03178921        0.99821248        3.35369507
 C           -2.61350928       -0.22467636        2.82422817
 C           -0.30906452        2.10935005        2.11285863
 C           -1.67168889        1.97222356        2.43278652
 C            0.06675671        2.58731872        0.84723014
 C            2.37592935        1.96159132        1.32094224
 C            1.40694864        2.68465442        0.52651571
 C            3.31581253       -0.21869869        0.71786120
 C            3.15075373        1.12661999        0.41465121
 C            2.66519865       -2.47870640        0.15073702
 C            2.99479710       -1.18196275       -0.24982761
 C            0.48969108       -3.24846833        0.31188707
 C            1.63911536       -3.19758066       -0.57332558
 C           -1.36444621       -1.84038762        0.93514956
 C           -0.66718543       -2.55784596       -0.04145982
 C           -3.04838162       -0.17668999        1.50992752
 C           -2.44540189       -1.02189063        0.56077567
 C           -2.61902207        2.20427696        1.44487072
 C           -3.46661736        1.07823671        1.09357407
 C           -0.88178322        2.75945847       -0.16169320
 C           -2.21857334        2.81706816        0.19885908
 C           -0.51378038        2.63312610       -1.51624301
 C            1.80645817        2.56115992       -0.85983942
 C            2.82232972        1.52146652       -0.93481094
 C            0.84814912        2.61155373       -1.86470091
 C            2.71646270       -0.79772635       -1.57142955
 C            2.71587003        0.55874120       -1.92986842
 C            1.42642137       -2.86324144       -1.89168644
 C            2.17522567       -1.74914578       -2.44222717
 C           -0.91019952       -2.31478417       -1.39460665
 C            0.06013290       -2.67875482       -2.33104630
 C           -2.73652117       -0.84151676       -0.80405659
 C           -1.95727992       -1.47547381       -1.77773237
 C           -3.88578684        1.25261649       -0.26866447
 C           -3.22709271        2.45031696       -0.76865755
 C           -3.59262307        0.18997577       -1.19958941
 C           -1.50398590        2.45083428       -2.50498210
 C           -2.80735515        2.16074335       -2.11718252
 C           -3.35509176        0.85714370       -2.46098177
 C           -1.14409979        2.03232749       -3.78352422
 C            1.23508987        2.10829672       -3.10159535
 C            2.13511141        0.96602697       -3.13069225
 C            0.25081456        1.92963063       -4.13970730
 C            1.45553582       -1.32574742       -3.62924616
 C            0.14294871       -1.96917958       -3.59048438
 C            1.57402093       -0.01013143       -4.04576126
 C            0.46749633        0.62216685       -4.74225748
 C           -2.09500011       -1.11149381       -3.12479246
 C           -2.73848235        0.14562868       -3.47175315
 C           -1.82307793        0.87114084       -4.33475577
 C           -0.97828895       -1.29204961       -4.03963112
 C           -0.81081118       -0.06133791       -4.79143271
