   70
C70 / DATE: 7/ 1/2024 / Origin: Program Fullerene / C70 from database
 C            1.24338089       -0.02258502        4.45982170
 C            2.57456475       -0.27433133        3.94126230
 C            2.59746071       -1.63551090        3.43514024
 C            0.43321779       -1.19922402        4.18893480
 C            1.22979981       -2.12405043        3.41273192
 C           -0.82372132       -0.75116405        3.63886431
 C            0.50952311        1.13737923        3.98473233
 C           -0.82219266        0.69787018        3.60004743
 C            1.15624495        2.08194511        3.20184946
 C            3.10282350        0.59147867        2.90167443
 C            2.45246860        1.77992449        2.60269478
 C            3.34659954       -1.63750458        2.19380898
 C            3.57192963       -0.25125133        1.81358620
 C            2.96264001       -2.53031198        1.20662970
 C            0.72040290       -2.63174478        2.21776948
 C            1.62325184       -3.10404391        1.26513708
 C           -1.36589042       -1.41640875        2.55533469
 C           -0.59531762       -2.33742236        1.82936226
 C           -2.43171718       -0.80505531        1.91718873
 C           -1.48568508        1.32932575        2.54435885
 C           -2.42697877        0.59331580        1.80692029
 C            0.38463049        2.81971099        2.22139145
 C           -0.95641204        2.50952124        2.00848971
 C            2.41680636        2.23454566        1.22483713
 C            1.23574857        3.05733256        1.06641968
 C            3.35641010        0.13008250        0.48716011
 C            2.76754494        1.36853915        0.19806162
 C            3.20746469       -2.17702798       -0.17782906
 C            3.43980588       -0.84285149       -0.51191939
 C            1.17866199       -3.31951637       -0.10239944
 C            2.28036631       -2.95941658       -0.97704706
 C           -1.04817133       -2.75101404        0.56812278
 C           -0.11980251       -2.96977991       -0.45035674
 C           -3.13409949       -1.57227672        1.00662813
 C           -2.37915793       -2.52839658        0.22281471
 C           -4.10040733       -0.93784591        0.14076225
 C           -3.16923817        1.22829211        0.80269726
 C           -4.08425200        0.50425568        0.04009615
 C           -1.56257498        3.07741557        0.89559308
 C           -2.76133497        2.47668975        0.34656057
 C            0.63624683        3.15380547       -0.18431115
 C           -0.71942361        3.47697248       -0.22055755
 C            2.30195135        1.63376674       -1.08914911
 C            1.21957809        2.50477803       -1.27888421
 C            3.31303175       -0.45988194       -1.84301134
 C            2.76126987        0.84847005       -2.14228718
 C            2.00693782       -2.54411727       -2.26910322
 C            2.74096488       -1.40511639       -2.78764044
 C           -0.40463243       -2.54857850       -1.75579060
 C            0.62075493       -2.39709449       -2.68303810
 C           -2.69745541       -2.27279259       -1.16802752
 C           -3.90967019       -1.47889914       -1.19508627
 C           -1.65018517       -1.99211131       -2.04002150
 C           -4.24821645        0.83107566       -1.36665019
 C           -3.99980521       -0.38239466       -2.13004518
 C           -2.78477824        2.76640112       -1.08080067
 C           -1.48291625        3.30442754       -1.44429925
 C           -3.43371846        1.88879490       -1.93985384
 C            0.58473695        2.55734922       -2.51948966
 C           -0.83822718        2.84845559       -2.58477228
 C            1.97755813        0.73644047       -3.36219813
 C            1.85958774       -0.67398289       -3.67794798
 C            0.54534672       -1.29102602       -3.61792424
 C            0.85489620        1.53224878       -3.50967373
 C           -1.73624378       -0.92630867       -2.95216518
 C           -2.87445467       -0.12052885       -3.00276454
 C           -2.70911491        1.31940407       -3.06681859
 C           -1.46309557        1.82485248       -3.41243492
 C           -0.57788851       -0.47114414       -3.58728709
 C           -0.41782878        0.89784414       -3.81589926
