   70
C70 / DATE: 7/ 1/2024 / Origin: Program Fullerene / C70 from database
 C            1.45421665       -0.11651782        5.18480490
 C            0.57500212       -1.26525770        5.23000472
 C            1.11754434       -2.26461553        4.32709404
 C            2.50075462       -0.39672371        4.21354116
 C            2.20900444       -1.66580807        3.58929606
 C            2.60786188        0.75932061        3.35969387
 C            0.68315354        0.99987856        4.66879263
 C            1.51386629        1.66022934        3.69575693
 C           -0.71249908       -0.85695856        4.69057397
 C           -0.59594354        0.50179699        4.21189013
 C            0.00888424       -2.77996197        3.55891840
 C           -1.11136671       -1.86488631        3.74318065
 C            0.24832328       -3.21647824        2.26142997
 C            2.16666843       -1.74232362        2.19840973
 C            1.40745305       -2.76098299        1.61370057
 C            2.88785293        0.58219283        2.00633479
 C            2.58875164       -0.65475854        1.40934888
 C            2.78246826        1.73046803        1.23126317
 C            0.90109227        2.29757860        2.63115158
 C            1.76702150        2.68953194        1.62783596
 C           -0.98387644        0.79485155        2.90212816
 C           -0.38707361        1.88131218        2.24926314
 C           -1.80694352       -1.48075250        2.60341557
 C           -1.69494163       -0.15342589        2.14783424
 C           -0.88962218       -3.42867619        1.49610144
 C           -1.98227539       -2.48585686        1.66693199
 C           -0.76370515       -3.71164889        0.08239776
 C            1.57344298       -3.00528103        0.25399409
 C            0.48045065       -3.57659329       -0.51553919
 C            2.49351166       -0.75103266        0.01024384
 C            2.19871176       -1.98040616       -0.56288162
 C            2.72375759        1.62420998       -0.21157325
 C            2.42091768        0.40030611       -0.78011219
 C            1.21171622        3.26032739        0.43320340
 C            2.02177951        2.80205271       -0.67994330
 C           -0.87917757        2.27579662        0.99924017
 C           -0.16507785        3.24073755        0.28092199
 C           -2.05473176        0.16399892        0.82703972
 C           -1.76868455        1.43278131        0.31614622
 C           -2.48242972       -2.15766343        0.35740774
 C           -1.93366323       -3.13935644       -0.56018188
 C           -2.53910779       -0.82633742       -0.03431281
 C           -1.87727285       -2.80660280       -1.89999914
 C            0.56855954       -3.05466690       -1.86883809
 C            1.59413300       -2.02467684       -1.88294258
 C           -0.59582324       -2.84476313       -2.59494964
 C            1.75354782        0.37831036       -2.01197507
 C            1.35407006       -0.83975380       -2.57438941
 C            1.40941923        2.77697183       -1.92203966
 C            1.44180747        1.58520656       -2.65776590
 C           -0.64168202        3.64456971       -0.95487634
 C            0.30293673        3.61135734       -2.05566311
 C           -2.19536626        1.77523641       -0.97340178
 C           -1.84553535        3.03200794       -1.46388450
 C           -2.69092002       -0.54838119       -1.39294707
 C           -2.53384513       -1.58437507       -2.31674010
 C           -2.64185557        0.76934525       -1.84485275
 C           -0.62096646       -1.77482508       -3.57908214
 C            0.42478798       -0.85077690       -3.61763237
 C           -1.98923575       -1.28261980       -3.62001801
 C            0.82393301        1.54770569       -3.90871639
 C            0.24169172        0.30172384       -4.37393840
 C           -0.46753394        3.58042775       -3.27603438
 C           -1.84505559        3.29375145       -2.89242717
 C           -0.08280208        2.62323888       -4.28726652
 C           -2.71937441        0.99424768       -3.22600009
 C           -2.20597589       -0.01979102       -4.13324519
 C           -1.10395119        0.59657023       -4.84032425
 C           -2.34168957        2.27627507       -3.78410491
 C           -1.30908908        2.02921915       -4.78069239
