   70
C70 / DATE: 7/ 1/2024 / Origin: Program Fullerene / C70 from database
 C            1.39353645        0.19148001        5.02852544
 C            0.61208919       -1.03034826        5.09521888
 C            1.41540338       -2.09748961        4.53118222
 C            2.57684560       -0.08030692        4.22765599
 C            2.63713381       -1.50479506        4.00616504
 C            2.54644355        0.79540971        3.06820608
 C            0.60260018        1.18006345        4.32034000
 C            1.39131966        1.66230248        3.20743827
 C           -0.69313446       -0.76069463        4.51701916
 C           -0.69703179        0.60757801        4.02550046
 C           -1.30580493       -1.73933424        3.74936795
 C            0.83897930       -2.93190350        3.48845996
 C           -0.51871842       -2.85303877        3.22232446
 C            2.80068808       -1.97016471        2.64755113
 C            1.77000505       -2.95726307        2.37500350
 C            2.84147779        0.29269269        1.79478537
 C            3.12640585       -1.07387731        1.63360163
 C            2.43202930        1.04886620        0.68278314
 C            0.72797251        2.01741620        2.04750852
 C            1.45368259        2.02842048        0.86504655
 C           -1.26889470        0.88641741        2.78323712
 C           -0.65123254        1.82529158        1.95945036
 C           -2.21388560       -1.32756824        2.69514335
 C           -2.16824952       -0.01719418        2.21415635
 C           -0.97772745       -3.09981222        1.86794967
 C           -2.25250115       -2.42058564        1.74486445
 C            1.30564119       -3.06874368        1.06240046
 C           -0.07238209       -3.04606126        0.80470452
 C            3.12623478       -1.60256430        0.35227786
 C            2.18448030       -2.67569560        0.06039927
 C            2.72435021        0.60610658       -0.61033882
 C            3.12507316       -0.71336993       -0.78672491
 C            2.22598874        1.30822282       -1.71406527
 C            0.84958198        2.61082918       -0.24109279
 C            1.41701774        2.42582896       -1.50023036
 C           -1.26516150        2.18729868        0.76795458
 C           -0.50735743        2.91820297       -0.13563079
 C           -2.68625713        0.24694478        0.94079879
 C           -2.32161963        1.41968762        0.27343906
 C           -2.73101783       -2.15623558        0.47955889
 C           -3.19329184       -0.81175993        0.19596070
 C           -0.55424311       -2.74466798       -0.48006272
 C           -1.91947701       -2.54896023       -0.65720705
 C            1.69523602       -2.46689463       -1.28576522
 C            2.56860420       -1.47635722       -1.88667189
 C            0.32488605       -2.38583144       -1.50729801
 C            2.18422436        0.66362867       -2.95232068
 C            2.10928755       -0.78291278       -2.98574621
 C            1.27902930        1.13991893       -3.98154554
 C            0.86275329        3.10027893       -2.58924337
 C            0.76747722        2.42398056       -3.87272588
 C           -1.16113434        3.48831487       -1.21225183
 C           -0.37914712        3.82066008       -2.38323008
 C           -2.75498440        1.64275248       -1.04504529
 C           -2.38369995        2.84624094       -1.65753533
 C           -3.22917289       -0.70017626       -1.24428680
 C           -2.38273474       -1.75938454       -1.77842363
 C           -3.14979862        0.55063658       -1.83628477
 C           -0.14005642       -1.70641498       -2.64563935
 C            0.78995974       -1.10120596       -3.49524654
 C            0.39242470        0.02680478       -4.31707665
 C           -1.50731548       -1.44304773       -2.81015619
 C           -2.86426128        0.54753952       -3.19863567
 C           -0.95867294        0.25302214       -4.52616686
 C           -1.92194181       -0.44224551       -3.69189241
 C           -0.53676562        2.71555792       -4.44242947
 C           -1.22274154        3.63061559       -3.54797345
 C           -2.44709035        2.98376473       -3.10293916
 C           -1.43702539        1.61309948       -4.71880886
 C           -2.62433182        1.79102989       -3.89528732
