   70
C70 / DATE: 7/ 1/2024 / Origin: Program Fullerene / C70 from database
 C            1.11737716       -0.04769234        4.93160826
 C            2.44485917       -0.37469336        4.45623443
 C            2.36722803       -1.67475243        3.80117514
 C            0.29209417       -1.23047291        4.75232594
 C            0.97432852       -2.08116067        3.79926686
 C           -1.04101923       -0.77384616        4.43652006
 C            0.40163309        1.05889123        4.31729038
 C           -0.99140307        0.67786496        4.32956379
 C            0.92330634        1.68048761        3.17945775
 C            3.08454601        0.53973119        3.53472039
 C            2.28881408        1.58327460        2.90621130
 C            3.05912895       -1.57305432        2.52705997
 C            3.66147895       -0.25764950        2.46881156
 C            2.43651554       -2.05649090        1.37937740
 C            0.37595236       -2.37712355        2.57537339
 C            1.20154102       -2.69356646        1.49755396
 C           -1.67653460       -1.26231053        3.22868485
 C           -0.97105257       -2.06086218        2.33518139
 C           -1.81157051        1.04994354        3.20062338
 C           -2.43331759       -0.15534595        2.69354389
 C            0.06429882        2.17153546        2.18404382
 C           -1.32150946        1.94956558        2.26333912
 C            0.61707882        2.63516044        0.98270732
 C            2.74235147        1.68761735        1.53037634
 C            3.51717928        0.49548593        1.24080534
 C            1.84939265        2.13972860        0.56423660
 C            2.79706472       -1.51729045        0.14213876
 C            3.21662017       -0.18364635        0.07302589
 C            2.32675693       -2.12915119       -1.02271858
 C            0.62106086       -3.23121062        0.35901502
 C            1.28267514       -3.05026798       -0.92078401
 C           -1.47807146       -2.19665475        1.03995490
 C           -0.79935995       -3.01842553        0.15062669
 C           -2.75996979       -0.16265350        1.34778754
 C           -2.38743409       -1.24946033        0.54878131
 C           -2.09114747        2.12212876        1.11354478
 C           -2.93349974        1.07074998        0.73215403
 C           -0.21148749        3.22232007        0.03646630
 C           -1.64024101        3.02428583        0.15939613
 C            0.12647792        3.07781852       -1.36860637
 C            1.99305840        1.69301313       -0.75717751
 C            2.79792229        0.57738937       -1.00678761
 C            1.10747890        2.15994368       -1.73679936
 C            2.55639301       -1.49225731       -2.24127087
 C            2.74257590       -0.05273055       -2.23569270
 C            1.73425309       -1.82485836       -3.39005778
 C            0.24552702       -3.09972014       -1.94199002
 C           -1.02656831       -2.87894420       -1.27629747
 C            0.47302523       -2.50520447       -3.17194490
 C           -2.68307724       -1.19407053       -0.82074975
 C           -1.87994582       -1.88359138       -1.73976618
 C           -3.53678345        1.07291918       -0.51585028
 C           -3.51971135       -0.17022521       -1.26298675
 C           -2.21060184        3.01482769       -1.17652276
 C           -1.11040229        3.15549783       -2.12371188
 C           -3.26029925        2.14813559       -1.44816105
 C           -1.17761226        2.54753600       -3.36969505
 C            1.05518707        1.55155889       -2.99760992
 C            1.93105790        0.51202535       -3.29182192
 C            1.45998075       -0.59159399       -4.10801910
 C           -0.05715994        1.74085887       -3.82463528
 C           -0.57335875       -1.69214138       -3.76875556
 C           -1.75185615       -1.43634995       -3.06399407
 C            0.06639983       -0.60501804       -4.49919493
 C           -0.59621121        0.61052826       -4.57448939
 C           -3.56375064        0.16567729       -2.66884740
 C           -3.42346896        1.61142339       -2.78661094
 C           -2.40096502        1.87843390       -3.77862089
 C           -2.60172445       -0.44876109       -3.55527168
 C           -2.03150458        0.60689049       -4.37354204
