   70
C70 / DATE: 7/ 1/2024 / Origin: Program Fullerene / C70 from database
 C            1.41033587       -0.11598735        4.03706923
 C            2.62052505       -0.31313235        3.25967295
 C            2.63242621       -1.70566055        2.83428979
 C            0.55889479       -1.27703412        3.83267994
 C            1.28714212       -2.22588139        3.00968511
 C           -0.73118824       -0.80588428        3.36846141
 C            0.61143062        1.07020520        3.80279751
 C           -0.73477964        0.64318498        3.45619065
 C            1.17599791        2.12817050        3.10965787
 C            3.05166658        0.68692396        2.38489277
 C            2.42533598        1.93186450        2.38615173
 C            3.86828608        0.35223081        1.30973658
 C            3.34620924       -2.06235604        1.70108658
 C            4.12125651       -1.04659906        1.01310358
 C            2.70351385       -2.88417415        0.68955260
 C            0.63881016       -2.81636107        1.92767373
 C            1.40542976       -3.34853777        0.88189221
 C           -1.30288729       -1.41073846        2.25579718
 C           -0.73001539       -2.57268301        1.74226343
 C           -2.20802865       -0.68704917        1.47663644
 C           -1.46090882        1.36280156        2.51277160
 C           -2.38484543        0.67703262        1.71978843
 C            0.31949409        2.96677598        2.29349463
 C           -1.01863706        2.63357251        2.12333775
 C            2.35410218        2.69953174        1.14951059
 C            1.07865895        3.40111781        1.13276376
 C            3.69819721        1.04520875        0.04197011
 C            2.86927051        2.16242885       -0.02757972
 C            3.94671811       -1.23770761       -0.41860279
 C            3.04254248       -2.34150084       -0.61567172
 C            3.59847204        0.03423099       -0.99938898
 C            2.03031288       -2.24307895       -1.56523541
 C            0.75660300       -3.84691744       -0.24164488
 C            1.07608401       -3.24855296       -1.53104538
 C           -1.42864897       -3.28282178        0.77672657
 C           -0.67382195       -4.04769096       -0.19016650
 C           -2.82119909       -1.29484604        0.37384309
 C           -2.51467288       -2.62213808        0.06906038
 C           -3.49842181       -0.51520408       -0.57062386
 C           -3.28050536        1.40037731        0.94573015
 C           -3.78362508        0.81782374       -0.28328134
 C           -1.71407555        3.31563094        1.13271140
 C           -2.98860357        2.79362298        0.68511099
 C            0.40626476        3.60300662       -0.07065829
 C           -0.97765038        3.76796323       -0.03995784
 C            2.24362490        2.44633825       -1.23878317
 C            1.01996524        3.23356286       -1.26366847
 C            2.54737789        0.11329691       -1.90580911
 C            1.68306878       -0.98305196       -2.08728456
 C            2.11373455        1.38809602       -2.22999014
 C            0.44264806       -0.80407359       -2.73915120
 C           -0.15271128       -3.09799520       -2.27130746
 C           -1.20375907       -3.74779006       -1.50564016
 C           -2.45416372       -3.03741731       -1.32489116
 C           -0.44048691       -1.88917833       -2.88935558
 C           -3.55228504       -0.94081910       -1.89736561
 C           -2.80869215       -2.11802767       -2.29634665
 C           -1.77561605       -1.65803180       -3.21333058
 C           -3.36520918        0.03434247       -2.95496639
 C           -2.17810437       -0.35967935       -3.69731565
 C           -3.66326549        1.82256527       -1.33515456
 C           -3.07704002        3.00769927       -0.74796206
 C           -1.77267087        3.44315691       -1.21520997
 C           -3.22285191        1.42883879       -2.58808773
 C            0.21325523        2.75503222       -2.37681157
 C            0.85909065        1.56706851       -2.91617846
 C            0.08123755        0.46490388       -3.22867543
 C           -1.22931325        0.72220900       -3.61547075
 C           -1.17605691        2.79226392       -2.29450802
 C           -1.91324240        1.87552203       -3.04898958
