   70
C70 / DATE: 7/ 1/2024 / Origin: Program Fullerene / C70 from database
 C            1.76514284       -0.20574035        4.97496216
 C            0.89130304       -1.35658357        5.12462044
 C            1.31274899       -2.35563281        4.16389400
 C            2.66257022       -0.46364632        3.86234941
 C            2.39393894       -1.79719338        3.36600784
 C            2.55268291        0.64416706        2.93409261
 C            0.94066190        0.92731408        4.60415456
 C            1.53852261        1.55492408        3.43409083
 C           -0.45516289       -0.95124603        4.75573657
 C           -0.43392549        0.47208829        4.49199889
 C            0.12562411       -2.82047798        3.46891172
 C           -0.92031631       -1.83476121        3.70072735
 C            0.29300857       -3.30097357        2.18331573
 C            2.35853764       -2.00340454        1.99012077
 C            1.55744914       -3.03500120        1.51732412
 C            2.56518377        0.37636700        1.57361099
 C            2.65803297       -0.94458062        1.12409003
 C            2.06146484        1.34341783        0.70655258
 C            0.67893459        2.14806609        2.51109727
 C            1.06826894        2.21474633        1.16694074
 C           -1.16393225        0.95650398        3.41831508
 C           -0.68298878        2.09911911        2.79463106
 C           -1.59141772       -1.27578526        2.60953446
 C           -1.93643150        0.07763134        2.65057757
 C           -0.73809992       -3.03051224        1.20106586
 C           -1.57794010       -1.93734373        1.37785909
 C            1.31013278       -3.13016475        0.09656894
 C           -0.12240124       -3.23274147       -0.09274834
 C            2.63693075       -1.16260901       -0.25429012
 C            2.00329049       -2.30042741       -0.76916412
 C            2.25102605        1.16549812       -0.66118044
 C            2.77993884       -0.05605197       -1.09134913
 C            1.54324010        1.97590366       -1.55416045
 C            0.19941683        2.81980904        0.25164631
 C            0.37128763        2.59298912       -1.11885300
 C           -1.55021309        2.75197688        1.94346218
 C           -1.00747753        3.32261971        0.72970540
 C           -2.67294273        0.62533455        1.59813647
 C           -2.72801688        2.01857423        1.53591874
 C           -2.09886048       -1.29657298        0.25212385
 C           -2.82756971       -0.12026207        0.42182342
 C           -0.65541820       -2.59660939       -1.20120117
 C           -1.74186290       -1.73015112       -1.03821758
 C            1.55273017       -2.25112905       -2.08535786
 C            0.17646352       -2.42644941       -2.30434273
 C            2.92703629       -0.29363604       -2.45174501
 C            2.30916148       -1.49494222       -2.97366849
 C            1.75847899        1.83714653       -2.92312736
 C            2.63785507        0.78068693       -3.37566821
 C            0.60539385        1.86116986       -3.80675531
 C           -0.70702053        2.70905923       -2.01152408
 C           -0.64922024        2.03146363       -3.22952635
 C           -2.12678174        3.48297051       -0.17431007
 C           -3.22440311        2.67645285        0.34742569
 C           -1.95121267        3.13030620       -1.56286453
 C           -3.49570924        0.42465067       -0.67071664
 C           -3.72038494        1.85684864       -0.73234234
 C           -3.09750735        2.34060874       -1.94979468
 C           -2.28893004       -1.10649287       -2.17126052
 C           -1.71325707        1.18320026       -3.58790412
 C           -3.12698739       -0.00395024       -2.00657210
 C           -2.85233740        1.19264173       -2.79362241
 C           -0.41413099       -2.00923672       -3.48838185
 C           -1.63769072       -1.23523325       -3.40388459
 C           -1.42953994       -0.03280662       -4.19292286
 C            1.79827872       -1.20598235       -4.29710135
 C            2.06874712        0.19438248       -4.57704380
 C            0.79600936        0.84549398       -4.82618463
 C            0.39737319       -1.44871682       -4.55426318
 C           -0.20677615       -0.18708418       -4.95134331
