   70
C70 / DATE: 7/ 1/2024 / Origin: Program Fullerene / C70 from database
 C            1.44430123        0.01666748        4.89532392
 C            0.63181888       -1.18525369        4.78473843
 C            1.36176777       -2.14252075        3.98823887
 C            2.57083369       -0.13333464        3.99380394
 C            2.61632513       -1.51775479        3.58870941
 C            2.45462510        0.87722165        2.95887040
 C            0.64440816        1.13333700        4.42146510
 C            1.27359911        1.67715949        3.24285381
 C           -0.67995654       -0.78273500        4.32954484
 C           -0.71380059        0.67019610        4.28995791
 C           -1.30207136       -1.47281603        3.28689966
 C            0.73551842       -2.66966271        2.78519984
 C           -0.51149721       -2.19531773        2.37965323
 C            2.80101937       -1.80448256        2.18359700
 C            1.78854970       -2.76695744        1.80306368
 C            2.71574354        0.54197846        1.63071673
 C            3.06612391       -0.77049673        1.28437534
 C            2.19258773        1.36777983        0.64062709
 C            0.46479324        2.05326967        2.17553152
 C            1.03537111        2.10730114        0.91034082
 C           -1.52571064        1.24022148        3.32088413
 C           -0.93277765        1.99208160        2.28574986
 C           -2.49453157       -0.92442452        2.83736875
 C           -2.66311750        0.50611691        3.02523827
 C           -2.94845551       -1.21675317        1.49475135
 C           -0.81330061       -2.18116517        1.00508363
 C           -2.01912610       -1.64487908        0.55395446
 C            1.45778312       -2.79689344        0.46393392
 C            0.12427746       -2.64308315        0.07607700
 C            3.04200860       -1.11541106       -0.06992323
 C            2.42338624       -2.32448593       -0.40467718
 C            2.58413773        1.15826553       -0.67753855
 C            3.08515387       -0.09646523       -1.02643578
 C            2.11035538        2.02516917       -1.65738444
 C            0.30739126        2.66252240       -0.13355905
 C            0.92531363        2.81396730       -1.37143816
 C           -1.70905898        2.37139102        1.17504500
 C           -1.08036868        2.77480134       -0.01340879
 C           -3.54705950        0.98258778        1.99830018
 C           -3.86495173       -0.15445843        1.14767472
 C           -3.06385983        2.03312150        1.13433532
 C           -3.86184648        0.33098915       -0.20887139
 C           -3.68487954        1.77501565       -0.14580757
 C           -2.16203350       -1.28338104       -0.79564401
 C           -3.16611716       -0.37593993       -1.18236076
 C           -0.14432804       -2.53413854       -1.29606071
 C           -1.21911758       -1.73725637       -1.73289703
 C            2.25846471       -2.65014865       -1.73447016
 C            0.89238511       -2.85572468       -2.18038727
 C            3.20040221       -0.45479503       -2.36967697
 C            2.92707436       -1.83361129       -2.72148860
 C            2.03407749        1.59050059       -3.04093006
 C            2.61272436        0.38552999       -3.40218951
 C            0.12610817        2.87090537       -2.58138204
 C            0.70409673        1.93014599       -3.53664263
 C           -1.85769193        3.02196113       -1.15056115
 C           -3.17259562        2.40983820       -1.26134557
 C           -1.24949376        2.98324613       -2.47310367
 C           -3.10216061        0.21813771       -2.43379340
 C           -3.18554418        1.66792719       -2.50666367
 C           -2.07550065        2.13928028       -3.31087138
 C           -1.28173062       -1.28577246       -3.06581206
 C           -0.09690570        0.95376967       -4.14642157
 C           -2.09530831       -0.20700688       -3.37245349
 C           -1.47137825        0.98104896       -3.93686153
 C            0.82186577       -2.42388079       -3.55629531
 C            2.11038932       -1.85157948       -3.91776018
 C            1.88821567       -0.47438885       -4.31602931
 C           -0.19543801       -1.47074240       -3.91138453
 C            0.45871665       -0.28573520       -4.44937744
