   70
C70 / DATE: 7/ 1/2024 / Origin: Program Fullerene / C70 from database
 C            1.26883881        0.00828549        4.37306429
 C            2.58011034       -0.22705236        3.81936341
 C            2.61267189       -1.59736128        3.34144829
 C            0.44647913       -1.16100962        4.09489592
 C            1.25074704       -2.10437797        3.35135885
 C           -0.79168750       -0.69919279        3.50860655
 C            0.53413281        1.16972500        3.92181472
 C           -0.82292775        0.74451658        3.62067100
 C            1.13605168        2.10470611        3.07958994
 C            3.03763976        0.62675780        2.74061064
 C            2.32319998        1.77521640        2.39894748
 C            3.34033457       -1.61466090        2.08602733
 C            3.53525647       -0.23140338        1.67373596
 C            2.95705439       -2.54042958        1.13188574
 C            0.74709480       -2.66697776        2.18061399
 C            1.66554184       -3.19605062        1.28330636
 C           -1.24134091       -1.26793616        2.33181731
 C           -0.52232261       -2.30000307        1.71145456
 C           -2.20221464       -0.57700679        1.60885816
 C           -1.54391772        1.48869679        2.68848446
 C           -2.22573524        0.82240868        1.65329059
 C            0.29647773        3.09146890        2.56659659
 C           -1.12727313        2.80123561        2.49854996
 C            0.65166914        3.80124362        1.35117510
 C            2.59623339        2.34269405        1.15550093
 C            1.70697095        3.33580574        0.58810587
 C            3.31657737        0.14415659        0.34476777
 C            3.05516116        1.48425849        0.07482182
 C            3.05808957       -2.17232150       -0.26254932
 C            2.99095454       -0.82568006       -0.61140194
 C            1.22574151       -3.58447082       -0.04098399
 C            2.24183103       -3.12845635       -0.98064978
 C           -0.99705079       -2.82209820        0.49873711
 C           -0.11744531       -3.46232093       -0.38505697
 C           -2.88187881       -1.25650276        0.61427978
 C           -2.27335406       -2.45581282        0.06638334
 C           -3.47898979       -0.51086799       -0.47303370
 C           -2.78957374        1.54608861        0.58636986
 C           -3.30012258        0.86830995       -0.52659568
 C           -1.68797520        3.57837821        1.42199315
 C           -0.58208200        4.17680840        0.68698871
 C           -2.53608448        2.91200930        0.45852014
 C           -0.76493704        3.82704785       -0.70952150
 C           -2.15363719        3.42797054       -0.84104227
 C            1.49039226        2.99298230       -0.81269034
 C            2.31018278        1.83845318       -1.11968823
 C            0.21744295        3.08362931       -1.36567419
 C            2.31482453       -0.45743305       -1.78215224
 C            1.78739046        0.82487307       -1.90665074
 C            1.85149579       -2.82129545       -2.27093609
 C            1.93576241       -1.43262913       -2.69840029
 C           -0.45159528       -3.59424798       -1.73348943
 C            0.57651457       -3.33812005       -2.72637389
 C           -2.61631126       -2.52184118       -1.34360962
 C           -3.35962156       -1.31725325       -1.68122042
 C           -1.69447119       -3.04040120       -2.24081659
 C           -3.14494321       -0.69752369       -2.90535542
 C           -3.33785728        1.52027492       -1.76025950
 C           -2.51596375        2.69894408       -1.95536765
 C           -3.21720016        0.74907001       -2.98409433
 C           -0.16316800        2.19470546       -2.37559523
 C            0.58756317        1.02641975       -2.59985077
 C           -1.46454664        2.29116046       -2.86547880
 C           -2.01444634        1.21735402       -3.66201956
 C            0.81439252       -1.16862538       -3.58259043
 C            0.03883909       -2.39468126       -3.68475750
 C           -1.39584013       -2.32317447       -3.47563049
 C           -2.02242742       -1.11181167       -3.72915873
 C            0.13020134        0.04148600       -3.48968936
 C           -1.19091905        0.06389018       -3.93025070
