   70
C70 / DATE: 7/ 1/2024 / Origin: Program Fullerene / C70 from database
 C            1.20174219       -0.13830778        4.56451636
 C            2.52337819       -0.28596629        3.99336343
 C            2.54913972       -1.56958517        3.31474418
 C            0.38855691       -1.24922724        4.08139354
 C            1.18270945       -2.00006926        3.13539396
 C           -0.87218207       -0.70217603        3.64113533
 C            0.45814142        1.08273551        4.31709430
 C           -0.91514617        0.68102663        4.07896932
 C            1.01886939        2.09045517        3.53466843
 C            3.01102687        0.71516129        3.05750592
 C            2.26059919        1.85660402        2.80984134
 C            3.34693291       -1.41136635        2.12734423
 C            3.60013850        0.00732903        1.93672794
 C            2.99547918       -2.12235986        0.99511781
 C            0.71862720       -2.17955987        1.83246451
 C            1.64191578       -2.47540130        0.82300684
 C           -1.35516260       -1.01404264        2.37323952
 C           -0.57117688       -1.76110950        1.47998166
 C           -2.42421439       -0.26415037        1.88433198
 C           -1.76542665        1.54222898        3.40757657
 C           -2.71700032        0.96415493        2.47910357
 C            0.15900476        2.88515680        2.67377273
 C           -1.21732323        2.72417369        2.75114332
 C            2.06370445        2.28804505        1.43358718
 C            0.77992889        2.95503133        1.35905365
 C            3.46931130        0.51309156        0.64069986
 C            2.47293278        1.46314398        0.39082733
 C            3.71552204       -1.76830098       -0.12951286
 C            3.84176603       -0.34315191       -0.38885326
 C            3.39873756       -2.41769346       -1.37060995
 C            1.16990919       -2.79106935       -0.45887069
 C            2.10264389       -3.04427282       -1.46821701
 C           -1.01739537       -1.94195770        0.16780924
 C           -0.16528839       -2.50721420       -0.79555537
 C           -2.93107145       -0.53448596        0.61716026
 C           -2.27847438       -1.46106529       -0.19619188
 C           -3.84802903        0.35697222        0.05417164
 C           -3.15639372        2.05718664        1.64135255
 C           -2.01196433        2.94910114        1.55413860
 C           -3.82865426        1.74853176        0.47400253
 C           -0.01276438        2.79776797        0.22829705
 C           -1.37228232        3.09805960        0.32292186
 C            1.68816044        1.37404714       -0.77138395
 C            0.46072280        2.04433656       -0.85367580
 C            3.31111887       -0.12291458       -1.71702999
 C            3.44781390       -1.39433527       -2.39826896
 C            2.13125944        0.60653422       -1.85316483
 C            1.71750782       -2.89652242       -2.85069846
 C            2.45642114       -1.75339444       -3.37809290
 C           -0.60704605       -2.66959682       -2.12167481
 C            0.32725845       -2.66381893       -3.15404636
 C           -2.77795602       -1.72188102       -1.46488934
 C           -1.90081887       -2.29143763       -2.46746027
 C           -4.06970941        0.35195406       -1.38000138
 C           -3.61633977       -0.72743183       -2.12069238
 C           -3.50442660        2.52664596       -0.70490374
 C           -2.15408118        3.05132736       -0.82358145
 C           -3.76438787        1.69212482       -1.86028980
 C           -0.32025828        1.92228116       -2.00651640
 C           -1.58218368        2.51384334       -2.04512965
 C           -2.65673573        1.86660919       -2.78281987
 C            1.27413597        0.36100386       -2.93684830
 C            1.46262941       -0.76847381       -3.74005070
 C            0.30356545       -1.55506648       -4.09216681
 C            0.03679246        1.00563467       -2.99782402
 C           -2.07085179       -1.51385310       -3.68592274
 C           -3.02357966       -0.45746079       -3.41718978
 C           -2.34206205        0.81279232       -3.62302880
 C           -0.89352952       -0.89183899       -4.25865830
 C           -0.94418751        0.50546751       -3.86263771
