   70
C70 / DATE: 7/ 1/2024 / Origin: Program Fullerene / C70 from database
 C            1.40854913       -0.01822136        5.00100259
 C            0.63076377       -1.24243021        4.94405768
 C            1.51969713       -2.29236103        4.49475579
 C            2.62624101       -0.24201223        4.23927160
 C            2.71890382       -1.65713109        3.96328529
 C            2.61639351        0.67689743        3.12009587
 C            0.65024421        1.01911697        4.32238325
 C            1.48065564        1.56637916        3.27625683
 C           -0.57764024       -0.96402717        4.18239919
 C           -0.62504534        0.46671516        3.93058503
 C           -0.99407178       -1.83068035        3.16863867
 C            1.03670587       -3.21657601        3.49133235
 C           -0.25924924       -2.98462861        2.87526408
 C            2.86716765       -2.08762980        2.58455023
 C            2.01343162       -3.24259385        2.41594403
 C            2.90765487        0.22281117        1.83533904
 C            2.90998214       -1.14829584        1.55321349
 C            2.63158651        1.09132288        0.78634092
 C            0.86628831        2.01100205        2.11303663
 C            1.64546553        2.06546746        0.97055451
 C           -1.18297478        0.89219611        2.73250741
 C           -0.50949840        1.83349920        1.94553936
 C           -1.86239387       -1.34057433        2.19168809
 C           -2.07673093        0.03952536        2.10374032
 C           -2.08821640       -2.12247802        1.06011520
 C           -0.13331672       -3.39645269        1.48561888
 C            1.28131889       -3.36866347        1.17109815
 C           -1.02364995       -2.86107268        0.56053618
 C            2.58322961       -1.56202496        0.25622405
 C            1.67250312       -2.61271577        0.07882933
 C            2.92685894        0.68103472       -0.50956565
 C            2.79763756       -0.67829790       -0.80637047
 C            2.81270926        1.63423675       -1.51758834
 C            1.12500526        2.70097872       -0.14511126
 C            1.94872026        2.76813317       -1.25795929
 C           -1.07633195        2.18112050        0.71230001
 C           -0.26745312        2.72030278       -0.30308433
 C           -2.81190711        0.53415875        1.03370593
 C           -2.34199189        1.68644602        0.39128169
 C           -3.06926893       -1.71624031        0.17238510
 C           -3.59221451       -0.37866147        0.33222259
 C           -2.80502619       -1.87137825       -1.24418342
 C           -0.58026409       -2.59112594       -0.74243967
 C            0.79532036       -2.55548976       -0.99675078
 C           -1.48340413       -2.02315426       -1.65246887
 C            2.37604549       -1.07323150       -2.07715233
 C            1.26567336       -2.00073485       -2.17329404
 C            2.57895655        1.22228165       -2.88832528
 C            2.22910087       -0.09545501       -3.13983545
 C            1.40949187        3.22238937       -2.51473430
 C            1.85848253        2.29835341       -3.54662666
 C           -0.84052899        3.09117578       -1.53307745
 C           -0.02416316        3.36166501       -2.63401385
 C           -2.98209569        2.16666337       -0.74647435
 C           -2.19088647        2.82446880       -1.77112662
 C           -4.18287650       -0.00486600       -0.93417372
 C           -3.66590277       -0.93357625       -1.93225680
 C           -3.96228073        1.33707300       -1.42240581
 C           -2.59071698        2.27433038       -3.06490581
 C           -3.11524349       -0.14973295       -3.01335790
 C           -3.54792445        1.22014210       -2.80611980
 C           -1.01022334       -1.33024928       -2.77734121
 C            0.32482016       -1.47333258       -3.13959175
 C            0.99793038       -0.40778915       -3.85959548
 C           -1.80429473       -0.37052365       -3.42860450
 C            0.71271936        1.97773484       -4.37473689
 C           -0.39096581        2.80727280       -3.92329176
 C           -1.59908755        2.01587058       -3.99725688
 C            0.23818129        0.60609282       -4.42577056
 C           -1.19659561        0.62755034       -4.19650813
