   70
C70 / DATE: 7/ 1/2024 / Origin: Program Fullerene / C70 from database
 C            1.20056013       -0.12677909        5.80952038
 C            0.38944753       -1.31130288        5.60479926
 C            1.13864774       -2.20201251        4.74296650
 C            2.40809523       -0.26449055        5.00585728
 C            2.28022905       -1.47042481        4.21870100
 C            2.60444202        0.98211166        4.31294487
 C            0.46407801        1.00175896        5.27437204
 C            1.41943066        1.80218795        4.54534987
 C           -0.80139944       -0.92105062        4.86628285
 C           -0.69311744        0.48886215        4.55545939
 C            0.20111399       -2.74487324        3.78613079
 C           -0.95051163       -1.85137076        3.76394594
 C            0.71476795       -3.13648528        2.56553913
 C            2.46548283       -1.44218075        2.83037136
 C            1.95979319       -2.51914293        2.11613777
 C            2.83073837        0.95752700        2.87674625
 C            2.70770048       -0.23016350        2.15453456
 C            1.02322074        2.31757696        3.25650924
 C            2.15037356        2.12174716        2.37059628
 C           -0.91739832        0.89915732        3.23956155
 C           -0.24062169        2.01939924        2.74564615
 C           -1.38853741       -1.37080805        2.52838092
 C           -1.51191100        0.00953787        2.33256967
 C           -0.16941291       -3.10459814        1.42530603
 C           -1.21617566       -2.18825659        1.41153765
 C            1.91287438       -2.46241798        0.67046467
 C            0.69962498       -3.15092710        0.27764568
 C            2.49000671       -0.13173650        0.76234401
 C            2.23876467       -1.28036988        0.00535165
 C            1.86110641        2.17742140        1.02516377
 C            2.26567769        1.13133396        0.19354188
 C           -0.45424157        2.38264289        1.41921640
 C            0.66803997        2.79193559        0.70426047
 C           -1.85885945        0.47725367        1.06313764
 C           -1.49075069        1.77371367        0.71028122
 C           -1.67037261       -1.74730351        0.16904817
 C           -2.14779038       -0.44383106        0.05136502
 C            0.16540212       -2.79889534       -0.93609421
 C           -1.15836826       -2.36915279       -0.97062791
 C            1.82271510       -1.16539393       -1.33080579
 C            1.03075929       -2.20154093       -1.82959663
 C            1.93385605        1.24562535       -1.16602145
 C            1.74051547        0.09651796       -1.93913527
 C            0.50421293        3.14086999       -0.61249493
 C            1.32959570        2.43538609       -1.57238019
 C           -1.73654808        2.21292596       -0.59020241
 C           -0.83317659        3.11299665       -1.14641044
 C           -2.49904727        0.02389030       -1.21686133
 C           -2.47331841        1.40298916       -1.45416958
 C           -1.65478424       -2.00357098       -2.21838642
 C           -2.47201730       -0.87090488       -2.29672654
 C            0.58453107       -2.14452946       -3.13139102
 C           -0.84106284       -2.31909038       -3.30718057
 C            1.20956096        0.19755678       -3.24418992
 C            0.92369647       -0.98877970       -3.92113389
 C            0.62425661        2.49761242       -2.83489668
 C           -0.66427900        3.13605890       -2.57956571
 C            0.67185947        1.41605257       -3.70304699
 C           -2.72875842        1.88199290       -2.74052853
 C           -1.74033740        2.75767486       -3.35797740
 C           -2.95315839       -0.45853404       -3.54117863
 C           -3.18459534        0.95420136       -3.75752863
 C           -1.15936983       -1.80438514       -4.61770533
 C           -0.01204002       -1.00370816       -5.03409096
 C           -2.34145999       -0.98617553       -4.75214844
 C           -0.20312187        1.45312511       -4.79647462
 C           -1.43998631        2.20449746       -4.65914437
 C           -2.54022060        1.32915801       -5.00651525
 C           -0.51869855        0.24874363       -5.53142775
 C           -1.96972860        0.13314409       -5.59554953
