   70
C70 / DATE: 7/ 1/2024 / Origin: Program Fullerene / C70 from database
 C            1.22405618        0.06216816        4.30838847
 C            2.50110691       -0.24040318        3.70815898
 C            2.43362926       -1.60038388        3.19050183
 C            0.38823369       -1.12067886        4.17897496
 C            1.05352425       -2.02336095        3.26510570
 C           -0.94857611       -0.67491822        3.84169228
 C            0.46389950        1.18257526        3.79359453
 C           -0.93103277        0.77885355        3.77362975
 C            0.95559088        1.94460440        2.73589265
 C            2.97344905        0.59676545        2.62453693
 C            2.12856647        1.56098565        2.06729971
 C            3.08513320       -1.59684682        1.89772299
 C            3.69914416       -0.29131632        1.73940460
 C            2.44078617       -2.16063726        0.80034082
 C            0.39184046       -2.37986998        2.09628240
 C            1.11678959       -2.61386809        0.91862661
 C           -1.66879593       -1.36482923        2.87588048
 C           -0.99982393       -2.27535095        2.04687569
 C           -2.83245708       -0.75742003        2.41990629
 C           -1.80895181        1.41933141        2.89880652
 C           -2.89149259        0.69580319        2.39985418
 C            0.06666519        2.81139074        2.11515109
 C           -1.36294899        2.54528943        2.20766637
 C            0.34743840        3.29769946        0.78017957
 C            2.36746070        1.98638177        0.75230656
 C            1.46826189        2.83931479        0.10492369
 C            3.97221704        0.14606768        0.45686123
 C            3.42128950        1.42022244        0.03176194
 C            2.96665905       -1.90093259       -0.46347417
 C            3.77465320       -0.77744610       -0.64704186
 C            2.40654363       -2.52365001       -1.56909856
 C            0.46047809       -3.14326359       -0.20094389
 C            1.08875875       -3.11428996       -1.44537512
 C           -1.67599601       -2.87324116        0.99223296
 C           -0.92608561       -3.28611091       -0.17921009
 C           -3.50137907       -1.25713417        1.23301011
 C           -2.94551821       -2.32427623        0.54318338
 C           -3.52782251        1.09496179        1.15383690
 C           -4.02187271       -0.11247017        0.50303802
 C           -1.96779622        2.91017938        0.93492792
 C           -0.91613800        3.41718701        0.06614300
 C           -2.98173731        2.12841568        0.39498534
 C           -0.96245465        3.15366169       -1.30252368
 C            1.49083146        2.95644110       -1.28241459
 C            0.23337912        3.03098636       -2.00901800
 C            3.37224035        1.39736413       -1.42046791
 C            3.62669472        0.02895414       -1.84839716
 C            2.41407750        2.15803105       -2.07091578
 C            2.48355002       -1.87319629       -2.86712876
 C            2.94318992       -0.49840404       -2.93680494
 C            0.31281834       -2.71826655       -2.61256232
 C            1.16754611       -1.93717823       -3.47922135
 C           -1.68633391       -2.89074058       -1.35423971
 C           -2.95015061       -2.32926230       -0.91140858
 C           -1.00430520       -2.32131952       -2.42395084
 C           -4.10993915       -0.15811112       -0.88189812
 C           -3.49709319       -1.26060807       -1.60889288
 C           -3.19700842        2.16732519       -0.97925168
 C           -2.12653118        2.61785995       -1.85479236
 C           -3.86558959        1.05621073       -1.63455332
 C           -1.43863312       -1.09275898       -2.93905661
 C           -2.75857572       -0.70175785       -2.72894119
 C           -2.01779336        1.66003599       -2.94623445
 C           -3.09518868        0.70330114       -2.81566336
 C            0.30937842        2.08250282       -3.10806814
 C            1.67508908        1.59515097       -3.19128276
 C            1.90070861        0.28340011       -3.58487529
 C            0.75920123       -0.58872278       -3.80859612
 C           -0.75603029        1.21381213       -3.31394884
 C           -0.51082813       -0.16020982       -3.43143199
