   70
C70 / DATE: 7/ 1/2024 / Origin: Program Fullerene / C70 from database
 C            1.34330380        0.19520970        4.84511171
 C            0.57716400       -1.03470238        4.75723429
 C            1.44762723       -2.05391147        4.21839361
 C            2.58842957       -0.01036826        4.12463453
 C            2.67064961       -1.40808329        3.76846143
 C            2.64672942        0.96896451        3.06013825
 C            0.59880940        1.23064886        4.14945743
 C            1.46264624        1.79993479        3.13741388
 C           -0.65674927       -0.74479419        4.04889172
 C           -0.66301683        0.66956950        3.71755428
 C           -1.13291036       -1.63885431        3.09204225
 C            0.94990235       -2.85323670        3.12016525
 C           -0.39486782       -2.79624012        2.77972228
 C            2.86407894       -1.75536598        2.37133991
 C            1.91826170       -2.80159096        2.03763912
 C            3.07119124        0.59208439        1.79215425
 C            3.09775781       -0.76396011        1.42932611
 C            2.88600106        1.51894587        0.77375336
 C            0.89638051        2.20671103        1.93416277
 C            1.73217566        2.31597764        0.82237127
 C           -1.15966527        1.04730683        2.47497236
 C           -0.46967293        2.00026133        1.71778194
 C           -2.07165685       -1.15922645        2.17402218
 C           -2.05723600        0.19738714        1.82942259
 C           -2.72432207       -2.06787783        1.35621377
 C           -0.74506935       -3.51498685        1.64479156
 C           -2.05797990       -3.31825020        1.07434819
 C            1.44107386       -2.90644051        0.72677838
 C            0.21566059       -3.54658316        0.54907105
 C            2.90934959       -1.09557532        0.08899606
 C            1.88902720       -1.99460703       -0.24370410
 C            3.43590397        1.19789604       -0.45710435
 C            3.35930458       -0.19043826       -0.86147691
 C            3.12086364        2.01847180       -1.60272237
 C            1.19641937        2.84651087       -0.35286939
 C            1.97347898        2.88940217       -1.50992993
 C           -1.01339773        2.39409118        0.49797553
 C           -0.18647042        3.00461567       -0.45035957
 C           -2.66135440        0.63748583        0.64759829
 C           -2.24054965        1.85763340        0.10403872
 C           -3.31686464       -1.60954111        0.11934541
 C           -3.43114191       -0.24766660       -0.12272761
 C           -1.92716647       -3.43117056       -0.36655929
 C           -0.51894450       -3.36275946       -0.68615112
 C           -2.79871290       -2.44038942       -0.95722223
 C            1.15943259       -1.81010301       -1.43219145
 C           -0.10143546       -2.39336383       -1.58398291
 C            2.79950491       -0.22145055       -2.19661756
 C            2.89799326        1.12754671       -2.72815231
 C            1.64531215       -0.95956616       -2.43044093
 C            1.32422727        2.86223421       -2.80880824
 C            1.78543321        1.66020667       -3.49243064
 C           -0.73284464        3.46213484       -1.64694451
 C           -0.01349447        3.22001174       -2.88513164
 C           -2.88710571        2.38238415       -1.00973677
 C           -2.14071577        3.23646342       -1.91310072
 C           -3.74707036        0.10378219       -1.43054906
 C           -3.68180606        1.49259485       -1.82338991
 C           -2.39276106       -1.79435137       -2.11917836
 C           -1.03273357       -1.82696115       -2.46142758
 C           -3.15538130       -0.69143008       -2.49394786
 C            0.81485564       -0.59443923       -3.49132761
 C            0.85223510        0.76957930       -4.00564831
 C           -0.56724729       -1.03870248       -3.50689901
 C           -0.90498347        2.46874542       -3.75246873
 C           -2.25223338        2.67373404       -3.25196675
 C           -3.15907148        1.54541694       -3.17944982
 C           -2.67200710        0.21807707       -3.51541839
 C           -0.51810474        1.21008438       -4.20667699
 C           -1.38443933        0.05488393       -4.00861080
