   70
C70 / DATE: 7/ 1/2024 / Origin: Program Fullerene / C70 from database
 C            1.47606432       -0.34981235        5.47142831
 C            0.60180201       -1.47119767        5.20696668
 C            1.18568683       -2.23307556        4.11619332
 C            2.58918122       -0.43445366        4.53955233
 C            2.29140397       -1.47666340        3.57250321
 C            2.81344588        0.90064044        4.05286480
 C            0.74205976        0.86227110        5.14571458
 C            1.65773016        1.71219794        4.43184023
 C           -0.65961259       -0.93879226        4.71917048
 C           -0.49397905        0.47859702        4.48658974
 C            0.10823963       -2.55609729        3.21975216
 C           -1.04040096       -1.75059020        3.59238848
 C            0.37428340       -2.62999363        1.86306266
 C            2.28817150       -1.18405170        2.20028906
 C            1.47836118       -1.94472490        1.34170574
 C            2.99987588        1.08917268        2.63076481
 C            2.83479821        0.02226578        1.74043772
 C            1.19372230        2.35813052        3.22280224
 C            2.31948355        2.32396016        2.32112431
 C           -0.79776165        0.98276082        3.21424541
 C           -0.06447128        2.05813655        2.69114270
 C           -1.72447683       -1.15452826        2.54342798
 C           -1.61949564        0.22978431        2.36155385
 C           -0.73741320       -2.70814090        1.05208457
 C           -1.83792145       -1.92270805        1.39834562
 C           -0.52849935       -2.96084429       -0.28477930
 C            1.50627813       -1.69476948       -0.04125009
 C            0.58497622       -2.35195087       -0.87439347
 C            2.71160485        0.35827070        0.38774160
 C            2.17207864       -0.56351632       -0.51927812
 C            2.05297549        2.55909598        0.99565193
 C            2.66098830        1.71931109        0.07672100
 C           -0.29463084        2.46640789        1.37206362
 C            0.78423167        3.01931347        0.67685134
 C           -1.98549039        0.75569550        1.11566746
 C           -1.35513388        1.91473418        0.64511599
 C           -2.63943613       -1.44216248        0.37492286
 C           -2.69946242       -0.05524519        0.22074112
 C           -1.67410101       -3.14893127       -1.03532581
 C           -2.78647524       -2.27214523       -0.73334867
 C           -1.55556475       -3.25857242       -2.46385320
 C            0.57983087       -2.08958690       -2.25199317
 C           -0.34334002       -2.75859798       -3.06695876
 C            2.03619545       -0.19569644       -1.86467361
 C            1.29240361       -0.98866483       -2.74528498
 C            2.59313207        2.10973291       -1.24728284
 C            2.40611396        1.09276515       -2.25868051
 C            0.60204983        3.46286561       -0.62240103
 C            1.68105651        3.19870489       -1.56015812
 C           -1.58605159        2.35394000       -0.66729073
 C           -0.64433760        3.16139300       -1.29800165
 C           -3.14664282        0.49213233       -0.97785155
 C           -2.53602221        1.71506441       -1.45634755
 C           -3.27391520       -1.73870070       -1.98827262
 C           -2.66953901       -2.52899573       -3.04837610
 C           -3.39734492       -0.36432438       -2.12858320
 C           -0.74882630       -2.19072625       -4.33621406
 C           -2.16475545       -1.86473865       -4.23189134
 C            1.03263655       -0.49213018       -4.02821976
 C           -0.06705640       -1.01580795       -4.81063726
 C            1.72418351        1.73239027       -3.37377458
 C            1.09848549        2.93275213       -2.85645314
 C           -0.34598036        2.94704349       -2.70939388
 C            0.97744117        0.93932108       -4.21909343
 C           -2.29461854        1.56980551       -2.88735208
 C           -2.87872789        0.30667924       -3.31470095
 C           -2.28666279       -0.42295438       -4.34215837
 C           -1.05115868        0.05436942       -4.92789720
 C           -1.08953188        2.01784501       -3.42935633
 C           -0.43213382        1.25634117       -4.39990045
