   70
C70 / DATE: 7/ 1/2024 / Origin: Program Fullerene / C70 from database
 C            1.46216710       -0.10715914        5.54908575
 C            0.54367138       -1.21955609        5.71363573
 C            1.14771462       -2.38699409        5.09532102
 C            2.56750692       -0.55972114        4.72116585
 C            2.37054196       -1.96177858        4.43524004
 C            2.67377447        0.35143111        3.59948345
 C            0.76915497        0.93556409        4.81113079
 C            1.62846645        1.34939162        3.71956645
 C           -0.66679011       -0.90454010        4.97368345
 C           -0.55368881        0.45358358        4.47168838
 C            0.24272767       -2.85883819        4.06202918
 C           -0.89843937       -1.96587006        4.01015417
 C            2.28399839       -2.36734534        3.04433640
 C            1.01176172       -3.03229567        2.84367599
 C            2.92670411       -0.14355512        2.32509635
 C            2.71101405       -1.50410633        2.04000036
 C            2.79709985        0.76024944        1.27461547
 C            1.03221240        1.78058625        2.53746186
 C            1.79898868        1.73881874        1.37376417
 C           -1.02041609        0.71205312        3.18829540
 C           -0.35289217        1.65713611        2.40616568
 C           -1.37338420       -1.61102205        2.75318646
 C           -1.73507634       -0.28616906        2.52816458
 C            0.36885573       -2.81358507        1.62913737
 C           -0.94844901       -2.34981687        1.65328768
 C            2.37364178       -1.84860356        0.72875381
 C            1.15150147       -2.49756015        0.51357299
 C            3.17436119        0.31403349        0.01880821
 C            2.91716085       -1.07649086       -0.28574773
 C            2.81622802        1.09294094       -1.14419991
 C            1.25102446        2.28018047        0.20978580
 C            1.96410940        2.17651751       -0.98556804
 C           -0.93146521        1.99197768        1.18437865
 C           -0.12671644        2.52149211        0.17402608
 C           -2.27776995        0.03027547        1.28719154
 C           -2.09807438        1.32622310        0.82192135
 C           -1.55838712       -2.08710418        0.43474702
 C           -2.41723192       -0.99079932        0.34619162
 C            0.49890255       -2.38273964       -0.72016688
 C           -0.89119534       -2.48406241       -0.71396448
 C            2.34957960       -1.13633761       -1.61767519
 C            2.55472967        0.15989913       -2.22785983
 C            1.13578328       -1.77065730       -1.80976697
 C            1.69946516        0.57293647       -3.24006181
 C            1.42790731        2.73188757       -2.13936595
 C            1.50024267        1.94685420       -3.35773700
 C           -0.72614997        2.93829885       -1.01692524
 C            0.08812727        3.27989123       -2.09095761
 C           -2.73088282        1.68913873       -0.35472117
 C           -2.07014944        2.63355038       -1.23696861
 C           -2.98505614       -0.69150458       -0.89650039
 C           -3.29863124        0.63937493       -1.18373459
 C           -1.58090549       -2.41017783       -1.91101977
 C           -2.77880381       -1.59243475       -1.94103615
 C            0.39718275       -1.46419546       -2.95577578
 C            0.70400285       -0.30423307       -3.69403714
 C           -0.83772135       -2.08820257       -3.10676176
 C           -0.11139604        0.09340721       -4.76029615
 C            0.48630673        2.45727691       -4.25553372
 C           -0.43943270        3.23968717       -3.44840845
 C           -0.28554366        1.50945461       -5.02895180
 C           -2.56108456        2.38162750       -2.58491602
 C           -3.30224688        1.12497586       -2.55817447
 C           -1.77165947        2.71527851       -3.67881396
 C           -1.69125773        1.81539328       -4.81697201
 C           -2.97703890       -1.17673793       -3.31973683
 C           -1.80090482       -1.59520198       -4.06977716
 C           -1.41796919       -0.50730937       -4.93741329
 C           -3.20607853        0.22338721       -3.61207080
 C           -2.40372829        0.55193089       -4.77713244
