   70
C70 / DATE: 7/ 1/2024 / Origin: Program Fullerene / C70 from database
 C            1.31547869       -0.02062506        4.83964564
 C            2.48432415       -0.17052162        4.00229893
 C            2.50894787       -1.54397550        3.52626706
 C            0.48484507       -1.20345917        4.65320345
 C            1.22062261       -2.14001652        3.82324570
 C           -0.82647167       -0.75407191        4.21290047
 C            0.47380531        1.13740322        4.63101469
 C           -0.89128281        0.65701734        4.50569696
 C            0.72277003        1.99674339        3.48247034
 C            2.63660833        0.69374121        2.84118774
 C            1.63722958        1.60762040        2.51050659
 C            2.96681430       -1.51369968        2.14852233
 C            3.20581711       -0.12498982        1.79803184
 C            2.36213776       -2.33283620        1.19470871
 C            0.54568673       -2.80002152        2.80736958
 C            1.22507072       -3.06249962        1.54685243
 C           -1.33696172       -1.22221552        2.99985691
 C           -0.81992233       -2.40684961        2.48558692
 C           -2.10746931       -0.37676822        2.17741097
 C           -1.54728210        1.50644881        3.54844088
 C           -0.57215347        2.46872167        3.06136436
 C           -2.38628554        0.93387488        2.60401501
 C           -0.74919952        2.92026563        1.76292392
 C            1.36765705        1.87766108        1.16093988
 C            0.23055517        2.61992075        0.79840774
 C            3.00758467        0.23174416        0.47982625
 C            2.18366251        1.31719964        0.16883977
 C            2.56139438       -2.01800378       -0.15252834
 C            3.12929410       -0.77756934       -0.45688052
 C            1.77768246       -2.65566453       -1.11691785
 C            0.18753085       -3.27525660        0.55334991
 C           -1.05162903       -2.74962201        1.10011035
 C            0.47536030       -3.02244354       -0.77995122
 C           -2.39023160       -0.75614968        0.84827797
 C           -1.81770308       -1.91407553        0.30493310
 C           -3.16632445        0.07438174        0.02599366
 C           -2.91134679        1.83513136        1.69193351
 C           -2.07424121        2.97430868        1.35610099
 C           -3.48266270        1.35454431        0.45827665
 C           -2.37372456        3.36240804        0.00534855
 C           -3.40243428        2.45879178       -0.48336757
 C           -0.05020760        2.83186162       -0.56304765
 C           -1.29492281        3.33969039       -0.95000747
 C            1.93882389        1.59385983       -1.18100567
 C            0.79335581        2.30536265       -1.54585896
 C            3.25115285       -0.39155626       -1.77771801
 C            2.65176477        0.87620411       -2.15179692
 C            2.10130641       -2.47974823       -2.45963413
 C            2.94933856       -1.35874421       -2.81160234
 C            1.04313144       -2.55530687       -3.45185928
 C           -0.57245597       -2.65349267       -1.62362523
 C           -1.70987324       -2.05074622       -1.07664320
 C           -0.33219045       -2.56905841       -2.99183921
 C           -3.29566660       -0.21708649       -1.33376581
 C           -2.58899488       -1.35281183       -1.89047146
 C           -3.09645409        2.16955257       -1.87002251
 C           -1.88371289        2.90565195       -2.20268925
 C           -3.23724918        0.86254417       -2.31383833
 C            0.37451241        2.31371780       -2.87979045
 C           -1.03967538        2.41711606       -3.18381880
 C            2.11966946        0.72724582       -3.49652625
 C            2.33190493       -0.64833553       -3.91633091
 C            1.19674758       -1.43119812       -4.36386826
 C            0.93387563        1.36431128       -3.82109510
 C           -1.06978645       -1.60749231       -3.79178512
 C           -2.20404025       -1.01917530       -3.25153462
 C           -2.43362980        0.40488730       -3.43415166
 C           -1.40823354        1.21387398       -3.91485157
 C           -0.09556175       -0.78174482       -4.48847266
 C           -0.17648242        0.60402462       -4.38856346
