   70
C70 / DATE: 7/ 1/2024 / Origin: Program Fullerene / C70 from database
 C            1.05518756        0.13821791        4.88326530
 C            2.34782213       -0.25175747        4.37669466
 C            2.28186808       -1.68545658        4.13799848
 C            0.23727821       -1.06619746        4.91516220
 C            0.87627589       -2.00348353        4.01879054
 C           -1.11383761       -0.66174011        4.62445095
 C            0.29472372        1.11805184        4.13962582
 C           -1.08692463        0.77353939        4.38091313
 C            0.67423655        1.45082345        2.83699553
 C            2.80934738        0.34000157        3.13763368
 C            1.90786684        1.02781827        2.32055014
 C            3.13356428       -1.95608019        3.01105759
 C            3.64290045       -0.67407570        2.53961272
 C            2.55032423       -2.59652768        1.85358116
 C            0.32659128       -2.22702866        2.74657742
 C            1.16127751       -2.59234295        1.68080094
 C           -1.77051815       -1.24419506        3.47507314
 C           -1.01205709       -1.89545055        2.49476673
 C           -2.04279863        1.02786022        3.32587197
 C           -2.71108518       -0.22989412        3.05464928
 C           -0.28636253        1.95966155        1.96311807
 C           -1.65498669        1.79083412        2.23247198
 C            0.11070848        2.37442180        0.69512805
 C            2.13647502        1.08825636        0.93421646
 C            1.25599094        1.81494540        0.12156653
 C            3.68180165       -0.75871435        1.09813679
 C            3.37179020       -2.13617589        0.76229291
 C            3.08060200        0.24029729        0.33696074
 C            2.92336353       -2.37720412       -0.51582964
 C            0.65397942       -2.62640908        0.37409599
 C            1.54633622       -2.81402230       -0.68037603
 C           -1.50391213       -1.92426389        1.18429812
 C           -0.63073256       -2.13931784        0.11266496
 C           -3.29704059       -0.37656211        1.81369235
 C           -2.77625606       -1.41452287        0.94169240
 C           -2.55747780        1.87039169        1.17484489
 C           -3.43531961        0.80650857        0.98106126
 C           -0.83075776        2.99877217       -0.10886412
 C           -2.22945548        2.66988004        0.09111237
 C           -0.60062353        3.10794738       -1.53213778
 C            1.41081548        1.79561098       -1.27549186
 C            0.53593400        2.53589059       -2.09042419
 C            2.99344427        0.00558424       -1.03081668
 C            3.08825779       -1.31418430       -1.47737620
 C            2.35630632        0.93327587       -1.84814131
 C            1.15921911       -2.43611714       -2.02979205
 C            2.28735708       -1.71895298       -2.60653682
 C           -1.03899460       -1.86351241       -1.21146698
 C           -0.12284358       -1.95766622       -2.26989299
 C           -3.15102582       -1.04561642       -0.40515859
 C           -3.66450199        0.31652378       -0.36255149
 C           -2.33955431       -1.40574679       -1.46916175
 C           -2.80367106        2.38293770       -1.21528005
 C           -1.88667616        2.94440681       -2.19695623
 C           -3.41073126        1.14547279       -1.44760456
 C           -1.91453055        2.47682921       -3.50249623
 C            0.58658139        2.41560452       -3.47826911
 C           -0.66011987        2.37730185       -4.22767694
 C            2.27377238        0.62054694       -3.20261963
 C            2.02778457       -0.76358776       -3.56642339
 C            1.45951334        1.43447945       -4.07553351
 C           -0.35863129       -1.26892147       -3.46512360
 C           -0.68027256        1.13376700       -4.98345044
 C            0.72549503       -0.76872339       -4.19059736
 C            0.62324335        0.52333367       -4.84361717
 C           -2.62457124       -0.80157663       -2.69114343
 C           -3.22929668        0.52366493       -2.67789092
 C           -2.68202347        1.27931434       -3.78835070
 C           -1.64280603       -0.82503910       -3.75288454
 C           -1.83763922        0.37829342       -4.55148898
