   70
C70 / DATE: 7/ 1/2024 / Origin: Program Fullerene / C70 from database
 C            1.07413937        0.03195362        4.69247654
 C            2.31566158       -0.26144088        4.01507533
 C            2.24027634       -1.64470158        3.57906143
 C            0.25260614       -1.16822724        4.62187734
 C            0.84823830       -2.02295194        3.61628992
 C           -1.11254246       -0.74311045        4.44205228
 C            0.26026524        1.12363692        4.20224920
 C           -1.11442801        0.71244298        4.37997393
 C            0.59958324        1.76828938        3.01591125
 C            2.67797164        0.52472925        2.85112906
 C            1.79553084        1.46811689        2.34592126
 C            2.90864941       -1.72375995        2.30795802
 C            3.31271003       -0.38225958        1.91848687
 C            2.34851931       -2.50792990        1.31815950
 C            0.18980408       -2.24862220        2.40085547
 C            0.94487439       -2.61971828        1.27782008
 C           -1.82853387       -1.20409444        3.27355162
 C           -1.14410003       -1.84436009        2.23354507
 C           -2.08160662        1.09282871        3.36484000
 C           -2.74287204       -0.13043615        2.94609689
 C           -0.39157542        2.47397185        2.33680124
 C           -1.71835416        2.01727805        2.38562567
 C            0.01006807        3.31055689        1.30392472
 C            1.95200824        1.86867348        1.02027841
 C            1.21715307        2.95953984        0.57619341
 C            3.30214288       -0.08873354        0.55211631
 C            2.52109473        0.98402384        0.09131803
 C            3.03506933       -2.47016091        0.12009247
 C            3.52784569       -1.16612791       -0.30025249
 C            2.45307825       -3.11783667       -1.02509193
 C            0.29752890       -2.77634741        0.04308398
 C            1.01567358       -3.25070599       -1.04832978
 C           -1.71567623       -1.83251261        0.95572718
 C           -0.95191167       -2.18854379       -0.15852275
 C           -3.33965202       -0.15278791        1.70219205
 C           -2.93597567       -1.19116308        0.77222584
 C           -2.53307270        2.12418933        1.25305522
 C           -3.39980939        1.08179778        0.93889088
 C           -0.97242648        3.76631461        0.34527336
 C           -2.23427688        3.06074531        0.27154518
 C            0.93771082        3.09456831       -0.83765479
 C           -0.35627936        3.72934470       -0.96916795
 C            2.13372263        1.04846415       -1.26155957
 C            1.24424709        2.04145597       -1.68589964
 C            3.25684221       -1.03426386       -1.71331116
 C            2.84029936       -2.34273695       -2.18477307
 C            2.57574545        0.08451974       -2.17795412
 C            0.58305098       -2.91129989       -2.38924433
 C            1.74255140       -2.40045861       -3.11932546
 C           -1.41625609       -1.91588538       -1.46309279
 C           -0.65338645       -2.30017833       -2.58034760
 C           -3.29742464       -0.72542340       -0.54548696
 C           -3.58034815        0.70206722       -0.45056515
 C           -2.60166121       -1.18474274       -1.64976324
 C           -2.48207052        2.73770460       -1.12734613
 C           -1.30871473        3.14724759       -1.88977656
 C           -3.13418756        1.54747772       -1.46634825
 C            0.48022700        1.84842521       -2.83952414
 C           -0.84827493        2.30199165       -2.88938409
 C            1.97371839        0.00416762       -3.43720075
 C            1.55675616       -1.30287609       -3.94138132
 C            0.95075841        0.96692320       -3.80646550
 C           -0.88275611       -1.69928973       -3.81984243
 C            0.24893444       -1.13899626       -4.53283810
 C            0.00770834        0.28362679       -4.67243762
 C           -2.78060354       -0.45973373       -2.81863790
 C           -2.88860234        0.98620686       -2.71939423
 C           -1.80992696        1.52687299       -3.52412878
 C           -1.96967464       -0.76119606       -3.97289079
 C           -1.40578441        0.49346049       -4.45373566
