   70
C70 / DATE: 7/ 1/2024 / Origin: Program Fullerene / C70 from database
 C            1.31724720       -0.02033940        4.44296883
 C            2.58381420       -0.29682046        3.80986536
 C            2.58002686       -1.69365552        3.41278138
 C            0.49046506       -1.21672999        4.33310715
 C            1.21672665       -2.18057898        3.53696214
 C           -0.81678237       -0.78886119        3.88306572
 C            0.52100996        1.08437256        3.94868093
 C           -0.85478969        0.64852696        4.07432313
 C            0.90315568        1.76367775        2.78666591
 C            2.96170911        0.48211952        2.65006095
 C            2.17291208        1.55218944        2.22559507
 C            3.23163147       -1.79019711        2.11776209
 C            3.48722475       -0.43591904        1.65142205
 C            2.75141495       -2.72255928        1.21598677
 C            0.61120162       -2.74718320        2.41882961
 C            1.44477497       -3.31652420        1.45793559
 C           -1.34120988       -1.31905997        2.70554255
 C           -0.70277131       -2.39357661        2.07487680
 C           -2.33250266       -0.59765198        2.02904294
 C           -1.81864742        1.36319322        3.39424650
 C           -2.74307559        0.62475784        2.55735911
 C           -0.08224823        2.46102757        2.07158673
 C           -1.37966975        2.47887532        2.58043294
 C            0.15902962        2.87746425        0.75545248
 C            2.45934648        2.08155831        0.97364272
 C            1.45568523        2.85804624        0.27330471
 C            3.32667693       -0.10954364        0.30418272
 C            3.12173366        1.22939818       -0.00315450
 C            2.81496452       -2.41905712       -0.19754956
 C            2.93742453       -1.09240196       -0.61540680
 C            0.90650634       -3.72338820        0.17329261
 C            1.84906203       -3.28607979       -0.84676677
 C           -1.28724253       -2.94452277        0.93717612
 C           -0.45769416       -3.61164119       -0.05213993
 C           -2.68442461       -0.94610239        0.71917824
 C           -2.30427218       -2.18731570        0.22834157
 C           -3.14357115        0.02654462       -0.17756691
 C           -3.35156066        1.60596808        1.68628867
 C           -2.48622975        2.78131849        1.70065055
 C           -3.57333200        1.26364849        0.29869839
 C           -0.89615737        3.08726139       -0.14253504
 C           -2.20983019        3.11766887        0.32208553
 C           -3.23450124        2.45267409       -0.45737380
 C           -0.68191114        2.98328059       -1.52526492
 C            1.67950654        2.68160571       -1.14779485
 C            2.63974703        1.60028669       -1.31436932
 C            0.60870796        2.75575172       -2.02957542
 C            2.46949518       -0.73234788       -1.88832725
 C            2.38403754        0.61582136       -2.26024606
 C            1.38776046       -2.93112285       -2.10166191
 C            1.89443175       -1.71072735       -2.70175718
 C           -0.94243412       -3.23862330       -1.37081210
 C           -2.07190495       -2.34076450       -1.19734429
 C           -0.03717016       -2.99723285       -2.39382174
 C           -2.90561029       -0.11529974       -1.55014728
 C           -2.21151541       -1.23268613       -2.02933447
 C           -3.01879192        2.31367986       -1.81252084
 C           -1.79836567        2.86906568       -2.36085828
 C           -3.11951777        0.98304276       -2.38117133
 C           -1.66735075        2.27622464       -3.67618089
 C           -2.44853021        1.04474312       -3.66197738
 C            0.78213288        2.15923274       -3.27917409
 C            1.63788375        0.98710960       -3.37951443
 C           -0.34674778        1.95815840       -4.16229648
 C            0.93783043       -1.32706029       -3.71760917
 C           -0.32623774       -1.95376621       -3.35982593
 C           -1.45834965       -1.15470282       -3.21107575
 C           -1.56703900       -0.03853637       -4.03586302
 C            0.92520363       -0.01546462       -4.15655086
 C           -0.34849175        0.55975055       -4.55382600
