   70
C70 / DATE: 7/ 1/2024 / Origin: Program Fullerene / C70 from database
 C            1.27407147       -0.10398580        4.05070057
 C            2.39868199       -0.29380464        3.15100754
 C            2.35642343       -1.67532922        2.71015722
 C            0.41556099       -1.27347636        3.93496002
 C            1.01747208       -2.17072006        2.97849167
 C           -0.92817658       -0.81589887        3.68629590
 C            0.44685598        1.07990586        3.90013196
 C           -0.91932462        0.63857488        3.67480430
 C            0.93812557        2.14629381        3.16619097
 C            2.71741669        0.71235901        2.23981921
 C            2.18809922        1.98911087        2.43705879
 C            3.32454584        0.38131888        1.02169650
 C            2.95401702       -2.01015535        1.50944334
 C            3.51627539       -0.95657448        0.68044201
 C            2.27091510       -2.93646254        0.62500694
 C            0.25447732       -2.65992458        1.92027612
 C            0.92401836       -3.23230201        0.83818015
 C           -1.71532099       -1.46859541        2.74712798
 C           -1.11533298       -2.34488213        1.81881562
 C           -2.89598350       -0.82084220        2.40910280
 C           -1.73373708        1.29773241        2.75175597
 C           -2.88092142        0.63191317        2.33349530
 C            0.03081706        2.87851955        2.30375796
 C           -1.18822952        2.30290028        1.94369098
 C            2.17422544        2.95031759        1.34899013
 C            0.84419253        3.54189773        1.30000026
 C            3.44927600        1.33873099        0.01653502
 C            2.84198152        2.64875293        0.17231162
 C            3.29084498        0.93194859       -1.37219540
 C            3.36690286       -1.36049712       -0.71123111
 C            2.74234720       -2.67028877       -0.72431419
 C            3.01246692       -0.40338024       -1.65974836
 C            1.94298918       -3.02735052       -1.79580296
 C            0.19546662       -3.81287264       -0.18739430
 C            0.74139607       -3.80004348       -1.53491366
 C           -1.86521959       -2.84583189        0.73699644
 C           -1.22110224       -3.53638617       -0.28497313
 C           -3.69391961       -1.31978465        1.31816205
 C           -3.09206241       -2.27001401        0.41584397
 C           -3.51804067        1.01187170        1.08977646
 C           -4.14269586       -0.17905823        0.53746659
 C           -1.74901433        2.59213326        0.69046406
 C           -2.86501200        1.88722827        0.23359757
 C            0.27330897        3.86110823        0.07849133
 C           -1.10299804        3.47593112       -0.17418784
 C            2.26740744        3.03255960       -1.10741028
 C            2.59536551        1.99564278       -2.07385004
 C            1.02452230        3.65513539       -1.15047326
 C            1.69364934        1.66992597       -3.07413057
 C            2.13231914       -0.73391944       -2.70032778
 C            1.61780459       -2.02732382       -2.79835980
 C            1.47729714        0.27369848       -3.40753083
 C           -0.29868957       -3.33097058       -2.43387941
 C           -1.50417854       -3.15326699       -1.66116935
 C            0.21816560       -2.19725216       -3.16237863
 C           -3.29887945       -1.79082038       -0.94218458
 C           -3.93981443       -0.48895539       -0.86670970
 C           -2.30270082       -2.03752011       -1.88478088
 C           -3.11677889        1.79713157       -1.13650202
 C           -3.51149656        0.52038223       -1.71095051
 C           -1.25426259        3.31051662       -1.60905965
 C            0.07583654        3.31002925       -2.19781749
 C            0.41149475        2.35410217       -3.15045436
 C           -2.22081938        2.43591821       -2.08353070
 C            0.06918395        0.10190043       -3.72865116
 C           -0.57265513       -1.06370172       -3.31609413
 C           -1.82788705       -0.98589981       -2.68804726
 C           -2.55164626        0.20577434       -2.75217448
 C           -0.58433644        1.39114433       -3.59553507
 C           -1.87498156        1.44568127       -3.09428245
