   70
C70 / DATE: 7/ 1/2024 / Origin: Program Fullerene / C70 from database
 C            1.46954357       -0.21735918        5.14229576
 C            0.60855690       -1.37496129        5.01391790
 C            1.20140133       -2.25474956        4.02272880
 C            2.56511895       -0.37049388        4.19745122
 C            2.34074078       -1.57713329        3.43677832
 C            2.67932819        0.86927233        3.47071258
 C            0.70503916        0.94491402        4.72550699
 C            1.55579391        1.71265472        3.85448881
 C           -0.66211425       -0.92173608        4.47440046
 C           -0.55696408        0.49384522        4.18472538
 C            0.14016985       -2.66717293        3.12724589
 C           -1.00191687       -1.80671481        3.38438796
 C            0.45758709       -2.90067897        1.79350503
 C            2.41228138       -1.52675322        2.04723982
 C            1.71034379       -2.49381246        1.32833483
 C            3.01859841        0.83920319        2.11917791
 C            2.80621231       -0.34557732        1.39108305
 C            2.90801343        2.05696746        1.45483318
 C            0.97341309        2.45309615        2.84008436
 C            1.87984489        2.96742505        1.93144030
 C           -0.93248942        0.94428702        2.91827358
 C           -0.29235600        2.05956990        2.35914326
 C           -1.64767558       -1.28039983        2.27617733
 C           -1.68734248        0.10588548        2.09191224
 C           -0.59679378       -2.91023037        0.88531968
 C           -1.69004014       -2.07810874        1.14301572
 C           -0.33832060       -3.30412946       -0.42445033
 C            1.98348230       -2.62324815       -0.02527897
 C            0.96759334       -3.18673809       -0.89908396
 C            2.74929921       -0.30341468       -0.01262867
 C            2.56887778       -1.48764386       -0.71513993
 C            2.85720390        2.08523385        0.00820927
 C            2.56158437        0.91234212       -0.67352408
 C            1.37884543        3.70569360        0.80641564
 C            2.15813307        3.29805723       -0.34921267
 C           -0.74604137        2.54855090        1.12221880
 C           -0.01445851        3.53446974        0.46680056
 C           -2.14748423        0.58940352        0.86665335
 C           -1.69079797        1.82252038        0.38792436
 C           -2.48544183       -1.66080858        0.08711360
 C           -2.77271462       -0.29907624       -0.01143759
 C           -1.39319301       -3.31001014       -1.33074491
 C           -2.53972620       -2.46933628       -1.04132387
 C           -1.10523705       -3.18986516       -2.74756124
 C            1.20955518       -2.64488831       -2.22708930
 C            2.00317987       -1.44114676       -2.05210397
 C            0.17574417       -2.63995725       -3.14913590
 C            1.85130695        0.96182280       -1.89005990
 C            1.53198942       -0.23202527       -2.55495227
 C            1.25035066        3.24665590       -1.46407234
 C           -0.07280934        3.60429621       -0.97535226
 C            1.33307175        2.18443324       -2.35294878
 C           -2.03361570        2.23158230       -0.91230129
 C           -1.15339176        3.04727822       -1.63968943
 C           -3.39124179        0.20279131       -1.14893985
 C           -3.04589772        1.54230377       -1.58726441
 C           -3.04599164       -1.93909717       -2.29334340
 C           -2.15306375       -2.38418229       -3.35095704
 C           -3.53351827       -0.64021445       -2.32772349
 C           -0.08876940       -1.42645296       -3.90301779
 C            0.58020165       -0.24379489       -3.58140525
 C           -1.51669097       -1.39074137       -4.19607705
 C            0.35103854        2.17215299       -3.33326904
 C           -0.93004230        2.76013064       -2.98261290
 C            0.07640440        0.95614420       -4.06128659
 C           -3.08310778        1.54886803       -3.04190586
 C           -3.26242687        0.18071643       -3.49597294
 C           -2.14070087       -0.16117830       -4.36142435
 C           -1.95496267        2.09959133       -3.75499442
 C           -1.31251016        1.02167236       -4.49122990
