   70
C70 / DATE: 7/ 1/2024 / Origin: Program Fullerene / C70 from database
 C            1.20099287       -0.04132356        4.66016002
 C            2.35333020       -0.48078353        3.90543071
 C            2.10217970       -1.84923615        3.47425650
 C            0.33966424       -1.19807092        4.82732497
 C            0.73109143       -2.16085040        3.81000873
 C           -1.02368999       -0.71297486        4.84242833
 C            0.37950984        1.01997805        4.10939098
 C           -0.99353098        0.68663526        4.43157195
 C            0.66898201        1.52166097        2.84051776
 C            2.72916396        0.26555038        2.72294670
 C            1.94001537        1.32782089        2.28597863
 C            2.51289208       -1.94588342        2.08995384
 C            3.16094481       -0.70262151        1.73622135
 C            1.65388304       -2.50013560        1.15859693
 C           -0.16089585       -2.48845967        2.78643136
 C            0.30966124       -2.73193906        1.48922367
 C           -1.99648781       -1.38912671        4.01035415
 C           -1.52965491       -2.30954429        2.98493364
 C           -2.00760326        0.86875426        3.41132080
 C           -2.76536189       -0.36211697        3.33587216
 C           -0.37461667        1.98286194        2.02727776
 C           -1.66929074        1.49508611        2.21567353
 C           -0.06611837        2.61141392        0.81968519
 C            2.18242511        1.80855129        1.00333317
 C            1.27531140        2.70344168        0.44611292
 C            3.13543594       -0.30376329        0.40621791
 C            2.99972990        1.05419523        0.15591176
 C            1.99370778       -2.35205163       -0.18024027
 C            2.70187108       -1.20348564       -0.57624718
 C            1.25182868       -3.07109379       -1.10149784
 C           -0.61454105       -2.95640383        0.46095337
 C           -0.14427810       -3.31560585       -0.79683140
 C           -2.39215851       -2.12404095        1.83028018
 C           -3.09143024       -0.86699479        2.01916124
 C           -1.89116173       -2.40607519        0.56149927
 C           -2.46033221        1.25625498        1.09391769
 C           -3.08938207        0.01354680        0.95300554
 C           -1.07174366        2.77809503       -0.14217881
 C           -2.24696434        2.02834334       -0.04803331
 C           -0.78732429        3.45112225       -1.32814117
 C            1.62788056        3.35760925       -0.72840899
 C            0.58515353        3.81417723       -1.62279486
 C            3.21744950        1.49117381       -1.13916010
 C            2.67492793        2.77446963       -1.54364201
 C            2.69459921       -0.78172470       -1.91879456
 C            2.99624419        0.54757825       -2.22023021
 C            1.36109362       -2.75348870       -2.50541747
 C            2.00248907       -1.51439559       -2.87964993
 C           -0.91554720       -2.94056663       -1.96852350
 C            0.02063115       -2.75272394       -3.06441784
 C           -2.42811268       -1.72587077       -0.54156280
 C           -3.14531018       -0.54188412       -0.31361751
 C           -1.97757236       -2.05202860       -1.82880048
 C           -2.94928243        1.69507313       -1.20915858
 C           -3.40969252        0.32831413       -1.35626441
 C           -1.37067774        2.97502743       -2.56866884
 C           -2.48011074        2.14897128       -2.50872337
 C            0.89603053        3.32074685       -2.95856756
 C            2.16325211        2.63421996       -2.89599692
 C            2.20805176        1.22670276       -3.23728070
 C           -0.26304488        2.59186485       -3.42827752
 C            1.11612347       -0.81004510       -3.79557569
 C           -0.11379836       -1.57665994       -3.90489242
 C            1.08196681        0.58398117       -3.75159795
 C           -0.14795000        1.26043202       -3.83979137
 C           -2.33255081       -1.26116081       -2.92200387
 C           -3.15872908       -0.09409409       -2.71266110
 C           -2.55132536        1.02024314       -3.42161931
 C           -1.32312347       -0.90595736       -3.91044642
 C           -1.32511960        0.53928465       -4.03623647
