   70
C70 / DATE: 7/ 1/2024 / Origin: Program Fullerene / C70 from database
 C            1.32678461       -0.04959760        4.17348337
 C            2.57160596       -0.21271243        3.44256345
 C            2.57462037       -1.55850662        2.88503574
 C            0.49308177       -1.20855673        3.89894972
 C            1.22710407       -2.08424206        3.00603836
 C           -0.81433852       -0.73595409        3.47796779
 C            0.52962091        1.13981676        3.94367984
 C           -0.78878128        0.71356343        3.50148519
 C            1.12453558        2.23373713        3.33572068
 C            3.06892579        0.85355508        2.69230541
 C            2.47833036        2.11213857        2.81181303
 C            3.93641358        0.59993006        1.62916482
 C            3.29426826       -1.81415367        1.72877315
 C            4.14381052       -0.76937188        1.19055032
 C            2.63131855       -2.46844643        0.61172676
 C            0.57368791       -2.56983406        1.87918661
 C            1.29097517       -2.82381170        0.70475705
 C           -1.44310758       -1.36665183        2.40765403
 C           -0.81730132       -2.46498919        1.81580476
 C           -2.40836854       -0.66078695        1.68110870
 C           -1.43631425        1.39318679        2.47664453
 C           -2.45809003        0.73759571        1.79431246
 C            0.35602697        3.01358874        2.38280274
 C           -0.83223945        2.50222283        1.87379725
 C            2.60902582        3.06615225        1.72406066
 C            1.29216847        3.62120331        1.45686370
 C            3.88970626        1.43545872        0.43680073
 C            3.17079183        2.61977397        0.46383917
 C            4.02544669       -0.79653218       -0.25819730
 C            3.08533411       -1.84448309       -0.61580638
 C            3.75191513        0.55449649       -0.70852201
 C            2.14693821       -1.59232939       -1.61306002
 C            0.58338459       -3.03961609       -0.47512283
 C            0.96405432       -2.33952208       -1.63084801
 C           -1.47880805       -3.14186889        0.80219869
 C           -0.70556538       -3.53995666       -0.35727952
 C           -3.12034179       -1.32631139        0.67295728
 C           -2.74161713       -2.61776694        0.31824349
 C           -3.96795483       -0.62012857       -0.17919111
 C           -3.19005712        1.48419280        0.88191585
 C           -4.07203909        0.81458578       -0.04638006
 C           -1.21803028        2.86682449        0.58224809
 C           -2.49833094        2.53637548        0.16414572
 C            1.02969578        3.49844600        0.03351048
 C            2.18802392        2.87594642       -0.57728813
 C           -0.23446378        3.08947065       -0.38278163
 C            2.70720036        0.74870273       -1.60485756
 C            2.18166923       -0.36111630       -2.26969294
 C            1.97084991        1.93843406       -1.57999365
 C            1.29887903       -0.13939138       -3.31596360
 C            0.06660423       -2.16478997       -2.69396168
 C            0.29949961       -1.14722059       -3.61451804
 C           -1.58368670       -3.53193001       -1.50479988
 C           -2.88092941       -3.04380977       -1.06422311
 C           -1.19137641       -2.76470018       -2.66425398
 C           -3.97800171       -0.92789145       -1.60292623
 C           -3.35752365       -2.08865737       -2.04853686
 C           -2.35868789       -2.01293345       -3.10475620
 C           -3.85798036        1.40141347       -1.35977937
 C           -2.74012212        2.32362443       -1.25002063
 C           -3.78386823        0.32033442       -2.32627187
 C           -0.37058171        2.49543746       -1.64230576
 C            0.77209818        1.99541020       -2.28649661
 C            0.64128045        1.15067569       -3.37964365
 C           -1.65478960        2.18147526       -2.10963584
 C           -0.83203558       -0.46331806       -4.21786144
 C           -2.17476158       -0.82279558       -3.79807550
 C           -2.82792883        0.39185081       -3.33225785
 C           -0.65647181        0.96174799       -3.98639196
 C           -1.82118153        1.44331667       -3.28040841
