   70
C70 / DATE: 7/ 1/2024 / Origin: Program Fullerene / C70 from database
 C            1.36436169        0.00457628        4.28610524
 C            2.55130263       -0.18568140        3.46702533
 C            2.43440485       -1.47770769        2.81583588
 C            0.52946161       -1.17776345        4.14561009
 C            1.15396750       -2.05880722        3.18904318
 C           -0.81948131       -0.74266505        3.88595191
 C            0.52641724        1.17546923        4.07205057
 C           -0.82707942        0.71012576        3.83641905
 C            1.01665438        2.23051060        3.31904083
 C            3.06001297        0.88769093        2.75455585
 C            2.38903901        2.17510666        2.84413601
 C            3.47041509        0.69145113        1.37401743
 C            2.87724012       -1.65530115        1.50878975
 C            3.27168142       -0.54066642        0.74972146
 C            2.42333234       -2.79850866        0.85979551
 C            0.38083649       -2.65691286        2.19559326
 C            1.07341758       -3.26145968        1.14623363
 C           -1.58859224       -1.42066312        2.95021490
 C           -0.95050289       -2.23987862        1.99696466
 C           -2.78495818       -0.80158088        2.61327476
 C           -1.62512523        1.32495364        2.87346376
 C           -2.78544523        0.65097209        2.51322008
 C            0.19373674        2.78098329        2.25173301
 C           -1.03326988        2.19305248        1.94856478
 C            2.42928968        2.79111979        1.53296588
 C            3.15397990        1.90479777        0.64088237
 C            1.07625357        3.17028271        1.16840332
 C            2.70522819        1.78330606       -0.66540987
 C            3.20002189       -0.57547375       -0.65046563
 C            2.99549089        0.61180834       -1.36202241
 C            2.65709964       -2.95447033       -0.55772659
 C            3.07742352       -1.79591261       -1.31057130
 C            0.41104284       -3.45911013       -0.12702731
 C            1.42349516       -3.43961514       -1.15884695
 C           -1.56654257       -2.48334374        0.75616038
 C           -0.79066425       -2.81180709       -0.34539725
 C           -3.56705056       -1.32370622        1.51972875
 C           -2.89308826       -2.14243658        0.54215891
 C           -3.46331076        1.00274554        1.28412790
 C           -4.14708454       -0.19152696        0.82280703
 C           -1.51845868        2.25574346        0.63334219
 C           -2.81024404        1.79929999        0.35019389
 C            0.66878627        2.94603268       -0.13734663
 C            1.62431037        2.56670572       -1.07547597
 C           -0.67646858        2.69202997       -0.40257581
 C            1.26731468        2.56852457       -2.41452700
 C            2.71013242        0.55970862       -2.72478885
 C            1.92529630        1.63394596       -3.30794541
 C            2.36898123       -1.85010839       -2.57560735
 C            1.18141283       -2.65429156       -2.35076573
 C            2.24014569       -0.68542087       -3.30929881
 C           -1.08411350       -2.25045608       -1.59556069
 C           -0.06897493       -2.07254207       -2.54892218
 C           -3.28480726       -1.67173117       -0.77601705
 C           -4.11753275       -0.48590622       -0.59328746
 C           -2.35449407       -1.70512132       -1.82049649
 C           -3.26161907        1.77000432       -0.96793975
 C           -3.94436535        0.57692654       -1.46296422
 C           -1.09891329        2.63462192       -1.73491358
 C           -0.14463455        2.59790797       -2.75674552
 C           -2.40636854        2.26413020       -2.02814621
 C            0.90772728        1.03173609       -4.15131434
 C            0.96416624       -0.40184019       -3.94329946
 C           -0.18437035       -1.06353817       -3.50694678
 C           -0.34609439        1.71101223       -3.89687060
 C           -2.55836124       -0.87777940       -2.92352571
 C           -3.41189446        0.28661443       -2.77542252
 C           -2.65265161        1.44454909       -3.20113481
 C           -1.42568385       -0.47867521       -3.73808944
 C           -1.51163442        0.96396332       -3.95073590
