   70
C70 / DATE: 7/ 1/2024 / Origin: Program Fullerene / C70 from database
 C            1.27864808       -0.18833738        4.19280972
 C            2.54915605       -0.46934915        3.56353643
 C            2.44737357       -1.76507161        2.90872906
 C            0.44208400       -1.36623697        4.03060983
 C            1.07999366       -2.22869353        3.06312239
 C           -0.89785200       -0.90769227        3.75048029
 C            0.51159771        0.95487812        3.72947442
 C           -0.87768665        0.54778253        3.74050578
 C            0.98321399        1.71319524        2.66181225
 C            3.04909799        0.46664948        2.58099310
 C            2.33573731        1.63007501        2.29787249
 C            2.98610901       -1.62571609        1.56308825
 C            3.57210560       -0.30502237        1.46672499
 C            2.24207262       -2.10427816        0.49419821
 C            0.37655058       -2.59632455        1.92201966
 C            1.09939371       -2.85443806        0.76041030
 C           -1.65387197       -1.55567935        2.77867379
 C           -1.00471923       -2.36411205        1.83080396
 C           -2.85627872       -0.94562912        2.43788263
 C           -1.78951711        1.19553563        2.91811636
 C           -2.95712979        0.49064882        2.63249366
 C            0.05794215        2.31709066        1.80074523
 C           -1.31974742        2.15053229        2.00354517
 C            0.50169972        3.00061258        0.66636174
 C            2.79505611        2.38489172        1.22636023
 C            1.86169091        3.20928677        0.48737041
 C            3.63836586        0.32139150        0.22894695
 C            3.62979073        1.71506028        0.24394138
 C            2.39455875       -1.51589629       -0.76338190
 C            3.16853948       -0.35705365       -0.90580684
 C            1.67785186       -2.03355028       -1.85208164
 C            0.45654732       -3.47899083       -0.29161368
 C            0.87511097       -3.15850312       -1.64334782
 C           -1.66875764       -2.72604892        0.65187699
 C           -0.99370006       -3.51509216       -0.27761626
 C           -3.48789028       -1.25532693        1.17078486
 C           -2.77799969       -1.98892846        0.23203426
 C           -3.90268244        1.00733818        1.66800487
 C           -4.20476991       -0.06663929        0.73500021
 C           -2.20014828        2.72566845        1.08289783
 C           -3.52980254        2.17376179        0.90222668
 C           -0.33931955        3.10272014       -0.43889919
 C           -1.70616571        3.07080240       -0.23692546
 C            0.15452766        2.76975468       -1.69734936
 C            2.37692656        3.34095626       -0.86820355
 C            3.52282568        2.45281231       -0.99528974
 C            1.48307490        3.06591822       -1.97900034
 C            3.22357462        0.26523285       -2.14963669
 C            3.37370032        1.70806522       -2.22502434
 C            2.20350099        2.23042961       -2.91159205
 C            1.53328042       -1.27923162       -3.02649187
 C            2.25192442       -0.09887454       -3.15923911
 C            1.50762702        1.10687098       -3.49254737
 C            0.33830684       -1.34611015       -3.74017026
 C           -0.26310937       -3.41275017       -2.50651463
 C           -1.44058793       -3.52045533       -1.65889788
 C           -0.55919014       -2.46484118       -3.55523509
 C           -2.91641508       -1.65854811       -1.11760714
 C           -2.38547420       -2.50586012       -2.07980156
 C           -1.88675899       -1.92320581       -3.31153414
 C           -3.96754599        0.43061738       -0.60732629
 C           -3.68113733        1.84742984       -0.50742958
 C           -2.52119468        2.36695103       -1.20907968
 C           -3.19891592       -0.33903656       -1.46902310
 C           -0.55502339        1.85451546       -2.49044375
 C            0.11877398        1.05419895       -3.42793120
 C           -0.46360337       -0.13884754       -3.84207321
 C           -1.80574267       -0.47387337       -3.40986000
 C           -1.88373380        1.56561410       -2.15447871
 C           -2.40185930        0.29695662       -2.42300094
