   70
C70 / DATE: 7/ 1/2024 / Origin: Program Fullerene / C70 from database
 C            1.56620748       -0.02405973        4.56450735
 C            0.78818862       -1.20575176        4.24626361
 C            1.56877176       -2.02229734        3.34896150
 C            2.72535637       -0.01291994        3.68745861
 C            2.70112076       -1.22317881        2.90291925
 C            2.72995676        1.24463033        2.98370429
 C            0.75760260        1.13740236        4.23649737
 C            1.55768900        1.99561282        3.40494036
 C           -0.50863046       -0.77412032        3.79102968
 C           -0.50067520        0.67750296        3.70143733
 C           -1.11009913       -1.46989506        2.75826916
 C            0.91278532       -2.78209264        2.38896085
 C           -0.45436624       -2.54767521        2.13886502
 C            1.71249505       -3.23579522        1.35086093
 C            2.95960736       -1.15823779        1.53394964
 C            2.70597099       -2.31900264        0.81342553
 C            3.05015782        1.26748546        1.62758623
 C            2.89919277        0.08634201        0.87834266
 C            2.85952973        2.49110524        0.99704074
 C            0.93543582        2.75872178        2.43188135
 C            1.81338162        3.34547794        1.53698982
 C           -1.00515320        1.27460957        2.54279348
 C           -0.33035562        2.35869561        1.95185155
 C           -2.10111152       -0.81012628        2.05707722
 C           -1.93758350        0.55512056        1.79153234
 C           -2.93439038       -1.57938174        1.27161905
 C           -1.08909909       -3.17962234        1.05052470
 C           -2.38039650       -2.78735019        0.68985672
 C            1.10500142       -3.93089418        0.24562463
 C           -0.33346110       -3.87087983        0.10576082
 C            2.47441247       -2.23671497       -0.61085739
 C            1.69353429       -3.39854885       -0.97224048
 C            2.44881443        0.15453480       -0.45780844
 C            2.14122831       -1.00813145       -1.16055696
 C            2.72156918        2.53789196       -0.43996284
 C            2.32280042        1.38338000       -1.10536555
 C            1.27700872        4.12622684        0.45629620
 C            2.05675650        3.79438035       -0.72275274
 C           -0.78959948        2.85920324        0.71930032
 C           -0.11036302        3.91923103        0.11731610
 C           -2.44428060        1.10671076        0.61344040
 C           -1.74903266        2.14165233       -0.01150331
 C           -3.76253505       -0.92911270        0.28368047
 C           -3.43922781        0.43262710       -0.08931502
 C           -2.76993161       -2.81067961       -0.71446651
 C           -3.74019940       -1.74643273       -0.91596221
 C           -0.61196177       -3.67472293       -1.30728891
 C            0.62691897       -3.22692956       -1.92658199
 C           -1.80692813       -3.06723636       -1.69160949
 C            1.30605711       -0.94073082       -2.28350751
 C            0.58729222       -2.07852410       -2.70018746
 C            1.58682356        1.46935113       -2.29756725
 C            1.07710267        0.30510528       -2.88683178
 C            1.15521607        3.85399324       -1.84358909
 C           -0.18480845        4.08747721       -1.31530108
 C            1.05307100        2.69749666       -2.70505810
 C           -1.91580093        2.35288785       -1.39294002
 C           -1.08005131        3.23745871       -2.06648792
 C           -0.31030417        2.72680110       -3.18366583
 C           -3.44213817        0.49993593       -1.53663269
 C           -3.58257908       -0.86013171       -2.04824117
 C           -2.57594120        1.39069241       -2.16094702
 C           -1.82484784       -2.35032659       -2.89326557
 C           -0.55765399       -1.92004725       -3.46296221
 C           -2.78554815       -1.27433460       -3.10266284
 C            0.08381041        0.43866372       -3.86184034
 C           -0.78337972        1.60046653       -3.82156436
 C           -2.08955654        1.09818013       -3.43695431
 C           -0.77294313       -0.68476105       -4.16956585
 C           -2.14593346       -0.26640862       -3.92452105
