   70
C70 / DATE: 7/ 1/2024 / Origin: Program Fullerene / C70 from database
 C            1.40218765       -0.05697437        5.00249257
 C            0.62913525       -1.24243760        4.66715626
 C            1.52357896       -2.17319632        4.02962075
 C            2.65835599       -0.13531681        4.27795401
 C            2.78256574       -1.47985789        3.77264530
 C            2.69097264        0.95992505        3.33109178
 C            0.67734908        1.09730194        4.50155844
 C            1.53023425        1.80344869        3.57479583
 C           -0.54876534       -0.81291991        3.94144355
 C           -0.59364035        0.63615379        4.00685583
 C           -0.91405189       -1.43001356        2.73685755
 C            1.11518273       -2.77774327        2.77782955
 C           -0.09074247       -2.41303089        2.16443746
 C            3.08488733       -1.66729867        2.36655890
 C            2.31331046       -2.82499821        1.96608683
 C            3.08018094        0.74041192        2.00958801
 C            3.13845198       -0.56880045        1.49986926
 C            2.87918154        1.79762642        1.13227278
 C            0.94720593        2.43663966        2.47947738
 C            1.78413227        2.71714103        1.40862250
 C           -1.15025379        1.28513073        2.92323214
 C           -0.42449453        2.26895607        2.23402360
 C           -1.83995320       -0.75982837        1.92913449
 C           -2.10488426        0.58075550        2.21540427
 C           -2.15554894       -1.26441661        0.66491595
 C           -0.26236954       -2.75768341        0.81867354
 C           -1.31868014       -2.21960280        0.08033037
 C            2.15707244       -3.05794328        0.61869884
 C            0.81624505       -3.30727591        0.13202705
 C            2.97598509       -0.80402145        0.12398494
 C            2.73515642       -2.10382095       -0.30873734
 C            2.89264899        1.55979278       -0.29370011
 C            2.77481175        0.25741232       -0.76321383
 C            1.21467544        3.12043263        0.13900009
 C            2.09494242        2.61082478       -0.89707929
 C           -0.98905328        2.78267477        1.05582346
 C           -0.16316087        3.06068052       -0.04536708
 C           -2.90602244        1.31391794        1.36670978
 C           -2.34833810        2.54814957        0.84868462
 C           -3.13772209       -0.62498487       -0.10250673
 C           -3.57350637        0.64161676        0.27690027
 C           -3.39590340       -1.06056598       -1.40121191
 C           -1.41146142       -2.48774071       -1.29264343
 C           -2.55721135       -2.09208643       -1.97909439
 C            0.88963814       -3.14042231       -1.30000535
 C            2.06007460       -2.31603588       -1.57128450
 C           -0.26690566       -2.86667646       -2.00851663
 C            2.23640686        0.03419827       -2.04159297
 C            1.92591543       -1.26377751       -2.46851229
 C            1.57964461        2.40161588       -2.16067207
 C            1.83015942        1.12831619       -2.80864008
 C           -0.66656651        3.01290829       -1.35512627
 C            0.19200887        2.74461555       -2.41753807
 C           -2.92507956        2.76744159       -0.45929309
 C           -3.80576874        1.64543768       -0.74332878
 C           -2.03368431        2.92252660       -1.58330068
 C           -3.68090705       -0.07889118       -2.44540445
 C           -3.62018657        1.26840650       -2.12724311
 C           -2.51898783        2.06553691       -2.65692020
 C           -2.49533351       -1.84927671       -3.41108413
 C           -3.02139251       -0.51870456       -3.65537895
 C           -0.07791324       -2.37979974       -3.29630917
 C            1.01758158       -1.45116912       -3.51301079
 C           -1.21220690       -1.93351447       -4.07161737
 C            0.80029027        0.96205344       -3.81685149
 C           -0.27179663        1.90172307       -3.50948612
 C           -1.60436388        1.48410541       -3.53859242
 C           -1.94067065        0.29416086       -4.18594303
 C            0.48639052       -0.31440539       -4.24490069
 C           -0.88903333       -0.61680706       -4.60065113
