   70
C70 / DATE: 7/ 1/2024 / Origin: Program Fullerene / C70 from database
 C            1.42242700       -0.03580049        4.92324168
 C            0.64990918       -1.20045529        4.55788836
 C            1.29046983       -1.84437828        3.41949556
 C            2.62071512       -0.05009437        4.11392409
 C            2.48799720       -1.09722686        3.11233155
 C            2.80477404        1.29993995        3.63950294
 C            0.64809039        1.13171014        4.52475112
 C            1.48207118        1.91739489        3.65124508
 C           -0.71066879       -0.74727960        4.38129845
 C           -0.61841242        0.65780796        4.01581288
 C           -1.51875770       -1.53730501        3.59832305
 C            0.46949814       -2.28364780        2.38852924
 C           -0.86490639       -2.49215821        2.71552904
 C            0.80211288       -1.99480846        1.05373047
 C            2.77863242       -0.77440809        1.79170150
 C            1.92221149       -1.19762038        0.76125161
 C            3.55294212        1.45504843        2.49166771
 C            3.61815574        0.31584265        1.57776956
 C            3.24860994        2.60850838        1.67763647
 C            0.95773097        2.39703015        2.44953525
 C            1.85816874        3.02169895        1.59806981
 C           -1.05049255        1.05252283        2.74269835
 C           -0.20786760        1.81419901        1.91669357
 C           -2.47531162       -0.86890628        2.75336332
 C           -2.11094633        0.34644857        2.17462575
 C           -1.80612076       -2.77268462        1.66178992
 C           -2.96252185       -1.91631178        1.89546793
 C           -0.09435121       -2.34718921        0.02867398
 C           -1.34160065       -2.90560168        0.36112407
 C            0.18545872       -1.99409296       -1.30235069
 C            2.15000248       -0.76580935       -0.55642271
 C            1.31281329       -1.20793045       -1.59668137
 C            3.76582594        0.84236370        0.24354394
 C            3.67835073        2.28983469        0.33994941
 C            3.10730437        0.23168571       -0.81443141
 C            1.53635910        3.18028789        0.19587917
 C            2.76523152        2.95839433       -0.55641570
 C           -0.50106164        1.93185213        0.54237009
 C            0.34016126        2.66478835       -0.30201120
 C           -2.49409853        0.59696169        0.85499566
 C           -1.62194497        1.28306777        0.00269308
 C           -3.70108169       -1.54120341        0.79666634
 C           -3.51894934       -0.17801133        0.31309970
 C           -2.32036783       -3.03133132       -0.61466478
 C           -3.60478297       -2.40126963       -0.35885869
 C           -0.69985154       -2.37357617       -2.32539411
 C           -1.98982759       -2.78173681       -1.99586001
 C           -0.49306599       -1.92372318       -3.62448792
 C            1.50392374       -0.70472521       -2.89513337
 C            0.61814194       -1.04583205       -3.90946151
 C            2.97660868        1.00014460       -1.96227806
 C            2.63665887        2.40977395       -1.81181679
 C            2.18183588        0.49791952       -3.05361256
 C            0.20930378        2.53324549       -1.68641693
 C            1.36404625        2.55173052       -2.46807967
 C            1.45053810        1.64065471       -3.58081085
 C           -1.84442093        1.29365832       -1.38976606
 C           -0.94316000        1.96651346       -2.23084558
 C           -3.72050905       -0.20150878       -1.11997052
 C           -3.92271952       -1.58771803       -1.50459695
 C           -3.13027699       -2.09512099       -2.60021107
 C           -2.92305700        0.57916111       -1.94495982
 C           -1.64398045       -1.42896309       -4.36469617
 C           -2.86317044       -1.21152009       -3.62454234
 C           -2.88647203        0.20935805       -3.29067959
 C            0.12273564        0.03048717       -4.75622357
 C            0.29160312        1.38193743       -4.27372064
 C           -0.95671874        1.72747450       -3.61142130
 C           -1.29574305       -0.15597736       -4.95576290
 C           -1.97420164        0.87647962       -4.18428486
