   70
C70 / DATE: 7/ 1/2024 / Origin: Program Fullerene / C70 from database
 C            1.58014420        0.07123962        4.56789184
 C            0.77989699       -1.13625091        4.49065573
 C            1.43017980       -2.04754710        3.56760599
 C            2.65258362       -0.04284913        3.59337921
 C            2.60237711       -1.37106626        3.02635726
 C            2.56074307        1.08275288        2.68950933
 C            0.73678052        1.18083839        4.16403690
 C            1.41354436        1.87648217        3.09349911
 C           -0.58942257       -0.74731597        4.22421476
 C           -0.59399803        0.67193306        3.90159904
 C           -1.37153901       -1.59878460        3.46555565
 C            0.64874829       -2.82362629        2.71071268
 C           -0.74442148       -2.71296785        2.75951868
 C            1.24988375       -3.33990596        1.56457750
 C            2.89283669       -1.53574230        1.67783995
 C            2.47507042       -2.72230321        1.08627204
 C            2.76403549        0.86988429        1.32527972
 C            3.11629645       -0.40845640        0.87254801
 C            2.23590584        1.80371183        0.42199140
 C            0.65189406        2.43496062        2.08412371
 C            1.30362853        2.72821921        0.89897712
 C           -1.25936516        1.11667892        2.75723817
 C           -0.72389142        2.18162872        2.02829638
 C           -2.35276673       -1.02423690        2.56762876
 C           -2.22517253        0.30537766        2.16217864
 C           -1.53429781       -2.96255155        1.55958830
 C           -2.65747243       -2.04188411        1.58093929
 C            0.43947864       -3.65385616        0.39878134
 C           -0.88836976       -3.23985722        0.35767525
 C            2.52367093       -2.87290102       -0.35558034
 C            1.28412502       -3.51050999       -0.77435850
 C            3.39124565       -0.58532027       -0.47983581
 C            3.06928542       -1.85179411       -1.11936604
 C            2.37779609        1.59997116       -0.95612905
 C            3.06274100        0.47780077       -1.41282838
 C            1.64694316        2.37582937       -1.86229523
 C            0.64461138        3.56450539        0.01848439
 C            0.93201947        3.47172322       -1.39555786
 C           -1.43950257        2.70039454        0.94546149
 C           -0.79354768        3.66082517        0.16194433
 C           -2.81491179        0.70833192        0.96289988
 C           -2.49990943        1.95334409        0.41034688
 C           -3.22312514       -1.64533762        0.38527394
 C           -3.49058047       -0.23451694        0.18533238
 C           -1.46750730       -2.85000917       -0.85647743
 C           -2.67362957       -2.15265300       -0.86031216
 C            0.70434509       -3.16426486       -1.98463267
 C           -0.71970670       -2.88296525       -2.03217715
 C            2.52288838       -1.56462302       -2.43527537
 C            2.66899305       -0.13782751       -2.66873950
 C            1.37568781       -2.22281524       -2.86696775
 C            1.35797375        1.87342845       -3.13149492
 C            1.76112109        0.52335639       -3.48263318
 C            0.03822626        2.08361931       -3.70489880
 C           -0.26350739        3.90396055       -2.10453970
 C           -1.32976060        4.05184962       -1.12440878
 C           -0.76753131        3.09303148       -3.19798128
 C           -3.06523115        2.29763609       -0.82237711
 C           -2.49511174        3.36405608       -1.62199926
 C           -2.16444776        2.80396310       -2.92501051
 C           -3.60266049       -0.03423173       -1.24634170
 C           -2.90645642       -1.14065723       -1.88237849
 C           -3.43208263        1.24143368       -1.74695782
 C           -2.61579759        1.42131285       -2.93294312
 C           -0.94079546       -1.86093401       -3.04497227
 C            0.35169767       -1.49096279       -3.59554152
 C            0.57594588       -0.17423027       -3.96521073
 C           -0.53151474        0.76574383       -3.93514926
 C           -1.91430145       -0.88719876       -2.82836544
 C           -1.73100861        0.41313027       -3.31447788
