   70
C70 / DATE: 7/ 1/2024 / Origin: Program Fullerene / C70 from database
 C            1.58907904       -0.07779978        4.55774513
 C            0.76729673       -1.26104020        4.40111917
 C            1.35699499       -2.09032921        3.36369088
 C            2.64923440       -0.14389423        3.56733166
 C            2.48349904       -1.36061195        2.80878029
 C            2.64689131        1.10278123        2.84286239
 C            0.76060847        1.07260966        4.23709424
 C            1.46937552        1.85343265        3.25623272
 C           -0.60167154       -0.82129545        4.22509503
 C           -0.55713426        0.59457841        3.88882236
 C           -1.44400484       -1.63865931        3.49515623
 C            0.50568178       -2.76300837        2.48839032
 C           -0.86677657       -2.75255798        2.75504753
 C            0.94860935       -3.03406933        1.18909806
 C            2.61252458       -1.31453662        1.42830583
 C            2.07391013       -2.36422229        0.69471686
 C            2.96091657        1.10074998        1.48646920
 C            2.92016833       -0.10884244        0.77422726
 C            2.68017153        2.27776504        0.80668361
 C            0.75235849        2.50352060        2.26191925
 C            1.52494402        3.04231328        1.24804140
 C           -1.14372547        1.03403173        2.69893365
 C           -0.54872082        2.06596666        1.95145869
 C           -2.40449063       -1.01935777        2.60729388
 C           -2.16795134        0.27241057        2.13471693
 C           -1.81342049       -3.09550892        1.70400609
 C           -2.82758547       -2.05043734        1.67794822
 C            0.09895187       -3.70363405        0.31049881
 C           -1.33618706       -3.62507206        0.51360172
 C            0.33881685       -3.63875828       -1.11905649
 C            2.43871197       -2.48529501       -0.63968910
 C            1.55812993       -3.16670928       -1.57414253
 C            2.96147640       -0.09571388       -0.62879999
 C            2.98261785       -1.31481559       -1.30330981
 C            2.68478267        2.29347062       -0.64124597
 C            2.68540825        1.08810138       -1.33182202
 C            0.88107158        3.58000912        0.07964635
 C            1.77268095        3.34721501       -1.04439109
 C           -1.15401940        2.48303597        0.75181115
 C           -0.48208255        3.38790115       -0.08938044
 C           -2.74735694        0.67253235        0.93382940
 C           -2.33469871        1.85599410        0.32301676
 C           -3.38537163       -1.65771878        0.47286912
 C           -3.51879828       -0.23808371        0.20763906
 C           -1.94128822       -3.23110779       -0.75075830
 C           -0.88354652       -3.15277439       -1.74320574
 C           -2.95499856       -2.28590762       -0.76892712
 C           -0.82526122       -2.07279584       -2.62725574
 C            1.58988571       -2.43167623       -2.82379284
 C            2.56677363       -1.36488544       -2.68687641
 C            0.35613724       -1.84383542       -3.31958982
 C            2.18209142        1.05030456       -2.64307619
 C            1.99847659       -0.17439133       -3.27302167
 C            0.66751579       -0.50262493       -3.76451808
 C            1.22959769        3.31005632       -2.31586325
 C            1.41460718        2.11293074       -3.11958600
 C           -1.02103077        3.74558198       -1.32126920
 C           -0.14818834        3.74441430       -2.48412047
 C           -2.91599178        2.20031422       -0.89712413
 C           -2.28821362        3.19477077       -1.73624642
 C           -3.61333589       -0.09937629       -1.23144482
 C           -2.94028499       -1.25579625       -1.79422796
 C           -1.79711047       -1.06877802       -2.57392608
 C           -3.35937741        1.13913040       -1.78274456
 C           -0.30916332        0.48521311       -3.71816128
 C            0.14418606        1.80363056       -3.75461529
 C           -0.76285015        2.90067296       -3.49397234
 C           -2.10260396        2.59586036       -3.05305186
 C           -1.55883870        0.18888992       -3.14935207
 C           -2.49810397        1.20573165       -2.94553421
