   70
C70 / DATE: 7/ 1/2024 / Origin: Program Fullerene / C70 from database
 C            1.11938264        0.03154298        5.43692143
 C            0.41469862       -1.14703002        4.97131804
 C            1.36758894       -2.00347722        4.30272454
 C            2.46321683       -0.01568647        4.88402586
 C            2.60183092       -1.25406463        4.14260497
 C            2.68620204        1.23114536        4.19000286
 C            0.44969715        1.19824538        4.87923762
 C            1.45662074        2.01487229        4.25746964
 C           -0.73587737       -0.70053425        4.21473367
 C           -0.65795524        0.73977768        4.06399992
 C           -1.13763935       -1.41705113        3.10228337
 C            1.00541663       -2.52482694        2.99978690
 C           -0.29926748       -2.39778438        2.54854390
 C            2.90322011       -1.20950573        2.71710352
 C            2.05890246       -2.19188575        2.06418177
 C            3.09154769        1.20528327        2.79576361
 C            3.12734564        0.00596370        2.07579589
 C            1.20321554        2.51901402        2.92284878
 C            2.43627812        2.34277788        2.18758198
 C           -0.88381597        1.28352358        2.78900053
 C            0.00288606        2.23483235        2.25882253
 C           -2.00320703       -0.76506351        2.23777083
 C           -1.71501164        0.56615440        1.91849509
 C           -2.62561267       -1.55742630        1.29763513
 C           -0.53640875       -2.74921309        1.22382018
 C           -1.85540683       -2.68168205        0.80898224
 C            1.70208033       -1.99421171        0.73155240
 C            0.47194798       -2.48708228        0.28374835
 C            2.95936243        0.07572573        0.69078789
 C            2.31570766       -0.97067858        0.01076407
 C            2.34275893        2.36600555        0.81485158
 C            2.96432050        1.34166613        0.11147010
 C           -0.03131041        2.51302974        0.88596491
 C            1.17236629        2.87978827        0.27809825
 C           -1.90879113        1.02026376        0.60551934
 C           -1.06946110        2.00823525        0.09187281
 C           -3.22710736       -0.93339730        0.14639470
 C           -2.76067371        0.31438162       -0.25362153
 C           -2.16045001       -2.82784737       -0.59286215
 C           -3.32287170       -1.99081427       -0.83605464
 C            0.13244324       -2.33839634       -1.06795298
 C           -1.11483813       -2.79472706       -1.50745517
 C            1.99320934       -0.80814849       -1.33991205
 C            0.87534510       -1.46065037       -1.87118618
 C            2.95746425        1.43581496       -1.27064096
 C            2.54042022        0.26922880       -2.02801568
 C            1.19208994        3.16823052       -1.07312115
 C            2.27358445        2.58051995       -1.84444617
 C           -1.08876954        2.29373917       -1.27891352
 C           -0.02292281        2.99959307       -1.84121398
 C           -2.83078315        0.64394782       -1.61157887
 C           -1.99596854        1.64635186       -2.12572609
 C           -3.58799999       -1.63654380       -2.14030069
 C           -3.52030017       -0.22457531       -2.47269656
 C           -1.45265198       -2.68057877       -2.85127442
 C           -2.82769400       -2.32201430       -3.16505542
 C            0.45069159       -1.17023111       -3.17629798
 C           -0.59462378       -1.90868284       -3.72969328
 C            1.90620871        0.74052673       -3.24715098
 C            1.73516222        2.17900705       -3.12288258
 C            0.38834584        2.71230126       -3.20648553
 C            0.85517091        0.01993026       -3.79724171
 C           -1.82986010        1.79312864       -3.50811981
 C           -0.49921320        2.03665060       -4.01700545
 C           -0.07362399        0.75211645       -4.53870468
 C           -3.31051839       -0.16181082       -3.90579673
 C           -2.82476380       -1.46637903       -4.33209191
 C           -1.44442930       -1.29844386       -4.74185408
 C           -2.39509741        0.82072821       -4.42305506
 C           -1.27180405        0.10640079       -5.02407125
