   70
C70 / DATE: 7/ 1/2024 / Origin: Program Fullerene / C70 from database
 C            1.39544647       -0.09717596        4.37766448
 C            2.65762671       -0.42044204        3.75808638
 C            2.59573155       -1.80427360        3.30788972
 C            0.55264439       -1.28185135        4.33287332
 C            1.27604449       -2.32065301        3.62081551
 C           -0.76087205       -0.87704417        3.85134635
 C            0.62651148        1.00392667        3.84040292
 C           -0.75462742        0.56564960        3.72294612
 C            1.15522052        1.81670483        2.83813706
 C            3.10550715        0.37868089        2.63285691
 C            2.31490382        1.42706338        2.14828647
 C            3.05383494       -1.83021743        1.92860206
 C            3.69185444       -0.55083907        1.68603235
 C            2.23177569       -2.38009037        0.94405419
 C            0.60181481       -3.05930549        2.65946125
 C            1.17693583       -3.19888578        1.32785591
 C           -1.39079642       -1.63095426        2.87010642
 C           -0.82167673       -2.84262150        2.47603338
 C           -2.33991933       -1.02045309        2.04734489
 C           -1.55382465        1.16488385        2.75681994
 C           -2.42900408        0.37872104        2.00015368
 C            0.27717313        2.71125305        2.24178505
 C           -1.14414808        2.40090138        2.26036517
 C            0.58959715        3.27920660        0.94762375
 C            2.56253635        1.90173692        0.85083808
 C            1.72976874        2.86722335        0.27096321
 C            3.84539974       -0.13385983        0.38012937
 C            3.49857312        1.23482279        0.05888179
 C            2.27610039       -1.86654496       -0.35643693
 C            3.27352441       -0.94998723       -0.67611977
 C            1.18119299       -2.02036882       -1.21957815
 C            0.08033135       -3.42642713        0.40651513
 C           -1.15280952       -3.39595092        1.17728360
 C            0.10110204       -2.83322131       -0.85083496
 C           -2.98816463       -1.79711579        1.08684617
 C           -2.30947037       -2.96520736        0.55238399
 C           -3.69982122       -1.16448296       -0.01154014
 C           -3.22437923        0.99723431        1.03465966
 C           -3.81942967        0.21584008       -0.03496444
 C           -1.73632948        2.93250290        1.04551693
 C           -0.65621131        3.42163765        0.20746112
 C           -2.79430499        2.26082515        0.46118433
 C           -0.65365634        3.16766017       -1.16179924
 C            1.79367870        3.11585729       -1.10259113
 C            0.55262720        3.33705226       -1.83163087
 C            3.37681537        1.28149295       -1.38155140
 C            3.10442376       -0.08155911       -1.82475536
 C            2.67093235        2.32532767       -1.95071574
 C            1.16620739       -1.36152551       -2.45849484
 C            2.05747605       -0.31338327       -2.70813285
 C            0.10181462       -1.56943435       -3.33591497
 C           -1.09016955       -2.77370215       -1.57366470
 C           -2.30624418       -2.82715659       -0.89139888
 C           -3.35911261       -1.88386865       -1.22975090
 C           -1.07171284       -2.28616304       -2.87257487
 C           -3.28365725       -1.20526550       -2.43823943
 C           -2.24591951       -1.59332705       -3.37719299
 C           -3.61930364        0.94221690       -1.28113182
 C           -2.82460541        2.11984685       -0.98303854
 C           -1.67626297        2.38898927       -1.72933099
 C           -3.37562390        0.24859250       -2.45647472
 C           -0.35149121       -0.47472759       -4.18239610
 C           -1.79474582       -0.39710788       -4.06007593
 C           -1.51271868        1.78270558       -2.98606596
 C           -2.36531986        0.74823883       -3.37308725
 C            0.71285703        2.79910797       -3.16169228
 C            1.97766975        2.08355362       -3.20176804
 C            1.68748732        0.71184077       -3.57660263
 C           -0.30750022        1.91192034       -3.67269915
 C            0.36069191        0.71197672       -4.15796067
