   70
C70 / DATE: 7/ 1/2024 / Origin: Program Fullerene / C70 from database
 C            1.57876291        0.06476675        4.59479049
 C            0.77474999       -1.14083723        4.54667052
 C            1.41498870       -2.06938053        3.63503002
 C            2.63661823       -0.06548235        3.60497565
 C            2.54684399       -1.38161734        3.02668076
 C            2.55402982        1.06697622        2.71680487
 C            0.73107471        1.16974877        4.18574806
 C            1.42381288        1.87347089        3.13741730
 C           -0.59336344       -0.75118517        4.27892447
 C           -0.58474843        0.64994841        3.88506310
 C           -1.38662292       -1.62722426        3.56376353
 C            0.62209088       -2.88648380        2.82860706
 C           -0.77132018       -2.77325005        2.89770651
 C            1.20372020       -3.42335635        1.68066925
 C            2.75727429       -1.54522145        1.66306488
 C            2.39529286       -2.78232703        1.14980568
 C            2.73434822        0.88256280        1.34534308
 C            2.78706632       -0.41820280        0.81164893
 C            2.33745621        1.93280948        0.51519529
 C            0.68367690        2.45695781        2.12896801
 C            1.39764342        2.84258332        1.01475486
 C           -1.20022253        1.03499412        2.68943748
 C           -0.65068140        2.07416671        1.92918780
 C           -2.35771459       -1.07818298        2.64110466
 C           -2.16344105        0.20203039        2.11830890
 C           -1.57969104       -3.06249348        1.71938327
 C           -2.71846092       -2.15881001        1.74743953
 C            0.36811727       -3.77990068        0.54522479
 C           -0.94705910       -3.33850706        0.50999528
 C            2.42266454       -3.00068810       -0.27325484
 C            1.18383684       -3.67029230       -0.64367342
 C            2.73669559       -0.58441689       -0.58647385
 C            2.57869568       -1.85602459       -1.13775845
 C            2.49275291        1.80008372       -0.86200649
 C            2.48642667        0.51740078       -1.41317350
 C            2.22877054        2.90574699       -1.66888941
 C            0.74610789        3.68891115        0.14328426
 C            1.33319187        3.91984712       -1.15451777
 C           -1.27485940        2.45445246        0.73154715
 C           -0.67783085        3.46606295       -0.02736706
 C           -2.70764381        0.51169755        0.86856515
 C           -2.17742432        1.57412592        0.11970491
 C           -3.33717165       -1.83349279        0.55774972
 C           -3.54386181       -0.42834605        0.26631485
 C           -1.50835591       -2.87442312       -0.68788908
 C           -2.82601521       -2.42106272       -0.66454224
 C            0.64199431       -2.98018473       -1.79354162
 C            1.64209491       -2.02629429       -2.23099835
 C           -0.69090830       -2.58393107       -1.79462015
 C            1.90325301        0.29582852       -2.66876445
 C            1.21591451       -0.89182696       -2.89569395
 C            1.88887722        2.70749924       -3.06327383
 C            1.67905579        1.35663472       -3.53553843
 C            0.24289218        4.06753775       -2.09642490
 C           -0.95996002        3.56424985       -1.44612674
 C            0.67766237        3.46973819       -3.34105871
 C           -2.46669149        1.70169926       -1.25367384
 C           -1.70794675        2.56183346       -2.04929429
 C           -3.80613485       -0.35223370       -1.15022964
 C           -3.31916583       -1.59252133       -1.74518694
 C           -3.23189052        0.73634098       -1.90332762
 C           -1.07867378       -1.61182228       -2.72338497
 C           -0.10075075       -0.83344412       -3.35345114
 C           -2.41182947       -1.22262917       -2.80813311
 C           -2.71711749        0.15767730       -3.12889226
 C            0.45682386        1.35279243       -4.31816393
 C           -0.24155674        2.59651455       -4.03693294
 C           -1.49041379        2.23383635       -3.39198384
 C           -0.49399376        0.26897813       -4.11190709
 C           -1.78175637        0.88559171       -3.83873119
