   70
C70 / DATE: 7/ 1/2024 / Origin: Program Fullerene / C70 from database
 C            1.27460953        0.07748563        4.76038122
 C            2.47251082       -0.14337608        3.97988802
 C            2.46881261       -1.53018524        3.54017215
 C            0.44385136       -1.11222281        4.64731323
 C            1.18568749       -2.10846613        3.89277147
 C           -0.86497558       -0.69640745        4.16619179
 C            0.44758776        1.22210701        4.44396796
 C           -0.91323258        0.74492392        4.26111187
 C            0.77194064        2.03875760        3.28503348
 C            2.72433428        0.68468076        2.81064057
 C            1.83162387        1.69179992        2.44317028
 C            2.89418167       -1.55125082        2.14960874
 C            3.24406380       -0.19085062        1.78159631
 C            2.20561711       -2.33625170        1.22352251
 C            0.51071762       -2.85739027        2.94029727
 C            1.14708197       -3.12941850        1.65940796
 C           -1.40338075       -1.32168345        3.04303998
 C           -0.88388928       -2.55239487        2.66153948
 C           -2.16730673       -0.58959080        2.12349437
 C           -1.48350510        1.48233120        3.15750747
 C           -0.49276020        2.42803904        2.68761748
 C           -2.22114718        0.81053440        2.19921336
 C           -0.50769153        2.76717505        1.34058148
 C            1.78096830        2.09473121        1.10560027
 C            0.71217732        2.88726976        0.68660633
 C            3.09097793        0.17633748        0.45739969
 C            2.55819915        1.42709709        0.14973551
 C            2.29356645       -2.00142414       -0.13169305
 C            2.98020555       -0.83411543       -0.48269140
 C            1.44362683       -2.61977738       -1.06088823
 C            0.08565974       -3.46437574        0.73064751
 C           -1.17646758       -3.06784461        1.34078995
 C            0.26638519       -3.23297267       -0.62627885
 C           -2.68856883       -1.22963642        0.98741212
 C           -2.12776298       -2.43612632        0.54959222
 C           -3.51594054       -0.50090869        0.12850183
 C           -2.55335231        1.52118480        1.05569183
 C           -1.64829338        2.48305449        0.58068572
 C           -3.47905288        0.94662627        0.20339701
 C           -1.68446747        2.90475358       -0.75592697
 C            0.71531793        3.39842286       -0.59990231
 C           -0.55175631        3.50576192       -1.30298168
 C            2.47779339        1.80674290       -1.19548556
 C            1.70518465        2.91207666       -1.54192329
 C            3.12362462       -0.48406179       -1.81408894
 C            2.86246772        0.89612221       -2.18738808
 C            1.60238444       -2.35255961       -2.41939398
 C            2.55734889       -1.34346486       -2.82965034
 C            0.42344315       -2.19939525       -3.25596954
 C           -0.87497583       -3.16364025       -1.42199611
 C           -2.12482283       -2.74590607       -0.80825216
 C           -0.80753179       -2.57203832       -2.74751614
 C           -3.60817883       -0.86392804       -1.27730235
 C           -2.82614085       -1.90072799       -1.75483328
 C           -1.93394559       -1.66413174       -2.88236743
 C           -3.64741563        1.48033682       -1.12779011
 C           -2.66792561        2.42440687       -1.62020703
 C           -3.68936634        0.36032454       -2.05324215
 C           -1.73236922       -0.36410062       -3.34984153
 C           -2.29618163        1.99544339       -2.96110899
 C           -2.69612918        0.60697988       -3.08525784
 C           -0.28115866        3.34272001       -2.72072553
 C            1.11996216        2.98741806       -2.86902533
 C           -1.07105748        2.38704500       -3.47504676
 C            2.18404342        0.88469449       -3.47858873
 C            1.91937457       -0.49854817       -3.82526819
 C            0.53992369       -0.93057180       -3.95245805
 C           -0.47923655        0.01576696       -3.84431758
 C            1.19828539        1.82584465       -3.73090514
 C           -0.16355376        1.37074822       -3.98381581
