   70
C70 / DATE: 7/ 1/2024 / Origin: Program Fullerene / C70 from database
 C            1.59817261       -0.02472480        4.58988344
 C            0.77742964       -1.21783124        4.49688607
 C            1.23767846       -1.99842411        3.36087219
 C            2.56590980       -0.07347488        3.51153820
 C            2.41269680       -1.33894539        2.81911525
 C            2.43105532        1.14050670        2.72973266
 C            0.73629806        1.11995091        4.35328633
 C            1.24104181        1.83028293        3.19579374
 C           -0.60776926       -0.79912906        4.52558957
 C           -0.63147558        0.64611733        4.32047371
 C           -1.53437868       -1.57837969        3.84992027
 C            0.29842242       -2.53008862        2.47817351
 C           -1.06142030       -2.49155672        2.81489814
 C            0.66451902       -2.75211648        1.14490646
 C            2.59636225       -1.34522644        1.44409189
 C            1.89431841       -2.27175575        0.67698343
 C            2.64034089        1.05098954        1.35922467
 C            3.03781947       -0.17543179        0.83032437
 C            1.98955174        1.95464427        0.52024605
 C            0.33749012        2.29245380        2.24682560
 C            0.80418539        2.55808547        0.95892940
 C           -1.50488535        1.18306019        3.37628118
 C           -1.03676396        2.13473416        2.45981999
 C           -2.73161700       -0.93186688        3.34724648
 C           -2.68752720        0.49634162        3.10463388
 C           -2.05420516       -2.50625568        1.75145159
 C           -3.10260858       -1.57382758        2.09730497
 C           -0.33542273       -3.06309638        0.22499900
 C           -1.60602349       -2.55628870        0.44265563
 C            0.01481957       -3.38138459       -1.07387600
 C            2.20434514       -2.38542857       -0.68095954
 C            1.38410746       -3.16435207       -1.49078568
 C            3.37271782       -0.23184161       -0.51286666
 C            3.04269371       -1.43198590       -1.26167759
 C            2.32063171        1.96346824       -0.83611128
 C            3.06929308        0.91179665       -1.35721879
 C            1.61485730        2.77894249       -1.71093276
 C           -0.02568231        3.22086053        0.05565398
 C            0.42642736        3.46355584       -1.23717314
 C           -1.92118642        2.65378107        1.51821019
 C           -1.39613237        3.26231293        0.30455191
 C           -3.38594678        0.73290843        1.85481155
 C           -3.43764457       -0.53415172        1.14464255
 C           -3.08776556        1.87344375        1.13533096
 C           -2.17489630       -1.72556319       -0.53188998
 C           -2.92131029       -0.60806066       -0.14933164
 C           -0.83204727       -2.87560883       -2.13487701
 C           -1.69892445       -1.81963460       -1.84191649
 C            1.36455507       -2.94932708       -2.92957343
 C           -0.02957083       -2.86213328       -3.33955574
 C            2.86208540       -1.03863840       -2.65197603
 C            2.77200578        0.41527218       -2.69252114
 C            2.06221620       -1.80586601       -3.48486865
 C            1.36262571        2.31766134       -3.07027493
 C            1.78701334        1.04675794       -3.45141698
 C           -0.53916837        3.47677342       -2.32225729
 C            0.02847096        2.75019706       -3.44364817
 C           -2.32514583        2.93755325       -0.76899118
 C           -3.07474593        1.78815395       -0.31130237
 C           -2.86149955        0.55177454       -0.92178002
 C           -1.86236665        2.93946211       -2.07227717
 C           -1.74979448       -0.69133735       -2.67517064
 C           -0.93382029        1.74562174       -3.85530626
 C           -2.26718524        0.51143143       -2.18405788
 C           -1.97543940        1.71150910       -2.84206843
 C           -0.16006827       -1.74630173       -4.24347434
 C            1.15582190       -1.14218135       -4.40196076
 C            0.98185196        0.29808061       -4.31297646
 C           -1.08265772       -0.68158833       -3.90336436
 C           -0.45273551        0.54531994       -4.34685002
