   70
C70 / DATE: 7/ 1/2024 / Origin: Program Fullerene / C70 from database
 C            1.25128394       -0.14702125        4.35742069
 C            2.54036463       -0.50884693        3.81814684
 C            2.46582621       -1.89199624        3.36782683
 C            0.40367762       -1.32775342        4.32138810
 C            1.11453389       -2.36656829        3.60221524
 C           -0.90437758       -0.91324880        3.84734946
 C            0.51831682        0.93604363        3.73378740
 C           -0.86607685        0.52617848        3.62883676
 C            1.07175879        1.64091071        2.67491645
 C            3.07942410        0.27197077        2.72157432
 C            2.36048189        1.34739141        2.19860004
 C            3.00979036       -1.93812285        2.02037991
 C            3.68229522       -0.66975759        1.80111628
 C            2.25209797       -2.49420977        0.98899534
 C            0.45670630       -3.05146429        2.59029305
 C            1.10276332       -3.21857949        1.29569671
 C           -1.59664925       -1.70667722        2.93674968
 C           -0.95730562       -2.80018974        2.34585903
 C           -2.68316360       -1.13353382        2.28623281
 C           -1.66210024        1.06574002        2.61935644
 C           -2.75928645        0.31785855        2.21075034
 C            0.21905282        2.41267472        1.89643587
 C           -1.12100508        2.02007591        1.74481940
 C            0.79562984        3.30808853        1.01134798
 C            2.77468346        1.88220083        0.97287553
 C            2.07253460        2.95460310        0.42800058
 C            3.90551012       -0.25987945        0.49919670
 C            3.55861784        1.10220569        0.12075409
 C            2.46701593       -2.06882938       -0.32468387
 C            3.45549845       -1.11793350       -0.57886166
 C            1.53471752       -2.36900547       -1.32301470
 C            0.05789112       -3.35048950        0.29680239
 C           -1.21893694       -3.12353972        0.94904292
 C            0.26170043       -2.82676429       -0.97047165
 C           -3.09792396       -1.65037440        0.99480007
 C           -2.21387305       -2.43708142        0.26361953
 C           -3.44591400        0.65963111        0.98206958
 C           -3.82826523       -0.58696765        0.33133168
 C           -1.86734712        2.44911943        0.63315877
 C           -2.98462243        1.72115518        0.21232539
 C           -0.01193860        3.91438755       -0.02151899
 C           -1.36605277        3.44324883       -0.20539547
 C            1.91365540        3.02855343       -1.01642773
 C            0.68682836        3.74231909       -1.28765630
 C            3.26026496        1.09227657       -1.30484249
 C            3.35946571       -0.28408174       -1.76324648
 C            2.24550668        1.91834686       -1.78244729
 C            1.76460353       -1.90778398       -2.61789889
 C            2.55210470       -0.70302644       -2.80359294
 C            0.65955034       -1.83510463       -3.55320962
 C           -0.84968431       -2.46769609       -1.73619265
 C           -2.07760666       -2.22113755       -1.11096637
 C           -0.67630628       -2.12518632       -3.07315349
 C           -3.93885131       -0.61601811       -1.04935943
 C           -3.07562800       -1.51969468       -1.79199779
 C           -3.41704094        1.82367637       -1.11008897
 C           -3.96748097        0.64756085       -1.76136997
 C           -1.56903165        3.32328194       -1.63699252
 C           -0.25290235        3.17270512       -2.22824976
 C           -2.58773256        2.50628549       -2.08798776
 C            1.35265685        1.43353430       -2.75019135
 C            1.68281799        0.26820211       -3.43917658
 C            0.64251233       -0.48581016       -4.10423203
 C            0.06294951        1.98070814       -2.87766047
 C           -1.55501707       -1.13975105       -3.66990705
 C           -2.78348442       -0.89942156       -3.07595171
 C           -3.26382874        0.46981114       -3.02010877
 C           -2.30013336        1.55083298       -3.14412119
 C           -0.71838388       -0.00449327       -4.02921490
 C           -0.97713826        1.23646121       -3.45388134
