   70
C70 / DATE: 7/ 1/2024 / Origin: Program Fullerene / C70 from database
 C            1.29456057        0.06028404        4.70565323
 C            2.51258052       -0.08272683        3.93495569
 C            2.48554960       -1.38703956        3.29716852
 C            0.45302498       -1.09450594        4.43177869
 C            1.18190209       -1.97874103        3.54426613
 C           -0.84777196       -0.61462486        4.00618338
 C            0.49037192        1.24828995        4.51418943
 C           -0.86221613        0.82490004        4.18382248
 C            0.89210058        2.22832010        3.51919391
 C            2.82365443        0.89617727        2.90847287
 C            2.07084082        2.06515477        2.78352449
 C            2.91593003       -1.22652445        1.91368005
 C            3.20933087        0.17445465        1.70265554
 C            2.22917744       -1.91982252        0.92847447
 C            0.51712014       -2.53904926        2.46216879
 C            1.27040027       -2.84080956        1.33730677
 C           -1.40833268       -1.14596303        2.84974771
 C           -0.84797136       -2.29570108        2.28757192
 C           -2.20751657       -0.32822355        2.05369000
 C           -1.33114182        1.65223185        3.08487252
 C           -0.31778991        2.65784778        2.83334951
 C           -1.94555078        1.04133235        1.99801566
 C           -0.20465712        3.18278478        1.55442063
 C            2.20552901        2.78997983        1.60497482
 C            1.06464950        3.54094877        1.11652721
 C            2.94312221        0.75546635        0.46757928
 C            2.79228210        2.13288880        0.44693862
 C            2.13861955       -1.37937052       -0.35854461
 C            2.37176100       -0.01263006       -0.55885982
 C            1.52055002       -2.13980796       -1.35452455
 C            0.68776155       -3.64389642        0.38019251
 C            1.02770575       -3.40035111       -1.00376002
 C           -1.48826573       -2.90033406        1.20055707
 C           -0.75360473       -3.80162464        0.42968753
 C           -2.92377726       -0.91372904        1.02312346
 C           -2.61527422       -2.28308829        0.65187701
 C           -3.13584088       -0.15824033       -0.19874312
 C           -1.92661614        1.68868489        0.75903581
 C           -1.17671635        2.86178757        0.60337991
 C           -2.50191638        1.06581739       -0.35430322
 C           -1.10664288        3.46953442       -0.64930271
 C            1.28298616        3.76355484       -0.29712727
 C            2.25810107        2.77112509       -0.73273686
 C            0.17842875        3.98750224       -1.10193547
 C            1.93514604        0.60497119       -1.74246734
 C            1.97706405        2.00735039       -1.85844341
 C            1.13827697       -1.53741707       -2.55998797
 C            1.40376194       -0.18097603       -2.77861574
 C            0.23977178       -2.18174827       -3.42080818
 C           -0.02194363       -4.02417380       -1.78106760
 C           -1.18706693       -4.13831791       -0.91507254
 C           -0.44021045       -3.38936866       -3.00225634
 C           -2.92375033       -2.42519319       -0.76475293
 C           -3.14169185       -1.09028309       -1.30942809
 C           -2.26370726       -3.38160620       -1.52178356
 C           -1.85281332       -3.05338784       -2.87260124
 C           -0.78010846       -1.38920695       -4.07106847
 C           -2.54817914       -0.71333576       -2.51309896
 C           -2.00484880       -1.68996572       -3.35184918
 C           -2.21557940        1.52493904       -1.63843468
 C           -1.74623481        2.82727320       -1.78473907
 C           -2.19034128        0.62462983       -2.71888737
 C            0.30530109        3.65938598       -2.50701123
 C            1.27611405        2.64571372       -2.87671927
 C           -0.98877299        3.19399214       -2.96329698
 C            0.79720462        0.42890446       -3.88000381
 C           -0.49033273       -0.06750470       -4.32112859
 C           -1.43802493        0.92084563       -3.85823047
 C            0.68497779        1.86847231       -3.93427235
 C           -0.74045005        2.18374365       -3.96317261
