   70
C70 / DATE: 7/ 1/2024 / Origin: Program Fullerene / C70 from database
 C            1.61308206        0.23142541        4.80411589
 C            0.79696679       -0.96089077        4.66553306
 C            1.44600807       -1.83768406        3.71021555
 C            2.66090028        0.17124175        3.79895068
 C            2.57080645       -1.10916068        3.13823363
 C            2.56692315        1.36216587        2.98654036
 C            0.77664691        1.37438221        4.49037817
 C            1.48904187        2.18180701        3.52104084
 C           -0.56489198       -0.54605946        4.39851190
 C           -0.54422470        0.88412156        4.13345147
 C           -1.34395288       -1.35788901        3.59436360
 C            0.65893952       -2.61465820        2.86100767
 C           -0.73186860       -2.50432654        2.93088870
 C            1.24446063       -3.08425179        1.68902164
 C            2.77168552       -1.18321090        1.76499483
 C            2.38588478       -2.36347031        1.14921388
 C            2.69690996        1.25457139        1.60374950
 C            2.83668751       -0.00843864        0.99867376
 C            2.29906143        2.34365711        0.82928635
 C            0.73591108        2.92332721        2.62530031
 C            1.27832413        3.16275466        1.30151353
 C           -1.15650531        1.39088085        2.98367378
 C           -0.66725740        2.57632520        2.44176235
 C           -2.23071169       -0.73624697        2.63108814
 C           -1.98118891        0.56554887        2.20950451
 C           -1.54665200       -2.79908871        1.76070761
 C           -2.54738679       -1.74651522        1.64374660
 C            0.41635050       -3.50718987        0.56964700
 C           -0.95883645       -3.30384766        0.60322406
 C            2.31858920       -2.43049101       -0.29258212
 C            1.15616154       -3.22776652       -0.65231412
 C            2.89217076       -0.09446528       -0.40116738
 C            2.62179324       -1.30787346       -1.04757075
 C            2.54229465        2.32361389       -0.53472576
 C            2.97268132        1.08188010       -1.14413212
 C            1.56520800        2.92729229       -1.42654983
 C            0.15481149        3.45443582        0.42907800
 C           -1.03234613        2.94942897        1.08987768
 C            0.29535723        3.23271337       -0.93594447
 C           -2.33731317        0.93279945        0.90475918
 C           -1.88612280        2.14091255        0.36106109
 C           -2.94731456       -1.34919384        0.37728603
 C           -3.01408892        0.01567139        0.08609546
 C           -1.65150152       -3.17853539       -0.59779146
 C           -2.77159964       -2.25633610       -0.66130731
 C            0.46861380       -2.92700084       -1.82466746
 C           -0.91659632       -3.05712756       -1.84890943
 C            2.23647530       -1.31910847       -2.38557944
 C            1.09974373       -2.13665298       -2.78208376
 C            2.53674452        1.10359247       -2.53183928
 C            1.70459592        2.28363537       -2.72226112
 C            2.19701862       -0.08823838       -3.15171509
 C            0.60071262        2.22507987       -3.56278730
 C           -0.82785285        2.86240832       -1.68054032
 C           -1.94582308        2.33197522       -1.01501663
 C           -0.67475543        2.69492139       -3.05652232
 C           -3.43683777        0.41551809       -1.18252570
 C           -2.95006367        1.67381794       -1.71318992
 C           -2.90662011       -1.81112720       -2.03379572
 C           -1.71070981       -2.23400687       -2.75154078
 C           -3.42666295       -0.54981752       -2.27278059
 C            0.30954018       -1.37104990       -3.73404155
 C            1.04028456       -0.14612135       -4.03264947
 C            0.33969236        1.01579828       -4.32827110
 C           -1.07998224       -1.35075040       -3.62636759
 C           -1.71079898        2.05115334       -3.83757531
 C           -2.88341149        1.55376990       -3.15512088
 C           -3.02017739        0.14474811       -3.47969753
 C           -1.09471671        0.93446036       -4.53903710
 C           -1.79830742       -0.27324377       -4.14389613
