   70
C70 / DATE: 7/ 1/2024 / Origin: Program Fullerene / C70 from database
 C            1.45633809       -0.36940536        5.45834058
 C            0.59999294       -1.50647009        5.19014107
 C            1.19950421       -2.26578033        4.10561191
 C            2.58184039       -0.44216299        4.54184247
 C            2.32245306       -1.51238088        3.59335026
 C            2.78375105        0.89129631        4.02964485
 C            0.71121047        0.83280677        5.12042255
 C            1.61137558        1.68565431        4.38528986
 C           -0.66629725       -0.99554842        4.69557026
 C           -0.52910051        0.42930387        4.48218064
 C            0.13835722       -2.58649343        3.18017264
 C           -1.02600719       -1.80379768        3.55525751
 C            0.42858823       -2.64420235        1.82262883
 C            2.36786450       -1.25123212        2.22030160
 C            1.59727084       -2.03983264        1.34797711
 C            2.98132646        1.05570442        2.60464831
 C            2.90807411       -0.04450228        1.75398390
 C            1.13468278        2.29683967        3.16164233
 C            2.23678918        2.23375021        2.22799736
 C           -0.86954906        0.94149189        3.22500931
 C           -0.14123197        2.00589862        2.67349239
 C           -1.72130204       -1.20818067        2.51412575
 C           -1.70627837        0.18475665        2.39396515
 C           -0.66017213       -2.66632012        0.96803872
 C           -1.79114100       -1.93425607        1.33750656
 C           -0.42474077       -2.87637492       -0.37920247
 C            1.73806236       -1.85437706       -0.03609910
 C            0.77211246       -2.38255593       -0.91291257
 C            2.83433912        0.22343009        0.39067539
 C            2.57246208       -0.82849570       -0.47599728
 C            1.92893622        2.38542248        0.89105918
 C            2.53109713        1.52643333       -0.02306969
 C           -0.40899003        2.39348147        1.35744613
 C            0.66093868        2.84862553        0.58243286
 C           -2.14886498        0.73609763        1.18871787
 C           -1.54899413        1.90579423        0.71508127
 C           -2.62708265       -1.45960381        0.33774200
 C           -2.84624226       -0.08179267        0.29266362
 C           -1.54596309       -3.00201220       -1.18576778
 C           -2.70798337       -2.21510906       -0.82664551
 C           -1.39837228       -2.96454883       -2.61876471
 C            0.90189221       -2.17557637       -2.29684802
 C           -0.15599337       -2.46738784       -3.16028985
 C            2.71247831       -0.59442564       -1.83466005
 C            1.94246940       -1.38529451       -2.77157883
 C            2.31848670        1.77114529       -1.38095060
 C            2.67823035        0.78275801       -2.29256167
 C            0.43624738        3.21391142       -0.73247779
 C            1.37227273        2.73742101       -1.73998926
 C           -1.85664015        2.36541121       -0.57046858
 C           -0.89839999        3.08842106       -1.27954212
 C           -3.40985131        0.49754613       -0.83933828
 C           -2.92770801        1.79934924       -1.25693645
 C           -3.25119407       -1.63485060       -2.03870328
 C           -2.48275479       -2.15824777       -3.15856869
 C           -3.63478895       -0.30268628       -2.03413553
 C           -0.49120855       -1.53802115       -4.23066351
 C           -1.91185285       -1.23966233       -4.12969793
 C            1.72933920       -0.56874333       -3.95666158
 C            2.11878933        0.79304552       -3.63255034
 C            0.40539633       -0.52831789       -4.55081283
 C            0.64512230        2.63773371       -2.99765526
 C           -0.75758087        2.90849632       -2.71858094
 C            0.99458239        1.66200628       -3.92157433
 C           -0.04096899        0.85810934       -4.55225670
 C           -2.94836012        1.83809188       -2.71113852
 C           -3.34148710        0.52520883       -3.19200895
 C           -2.34631829        0.08124493       -4.15629307
 C           -1.74671262        2.23499925       -3.42020402
 C           -1.38254067        1.15696239       -4.32935412
