   70
C70 / DATE: 7/ 1/2024 / Origin: Program Fullerene / C70 from database
 C            1.17948101        0.11059984        5.02836200
 C            0.44626524       -1.10229746        4.71692304
 C            1.39649434       -2.05827620        4.19703670
 C            2.50073072       -0.00968426        4.43248701
 C            2.63944274       -1.35369688        3.92131204
 C            2.66315017        1.08828411        3.50624309
 C            0.50093332        1.21677295        4.37585126
 C            1.47222275        1.91969645        3.56991869
 C           -0.69039026       -0.74292646        3.88385376
 C           -0.67050625        0.69927311        3.70864827
 C           -1.01818453       -1.53729517        2.78183820
 C            1.03510329       -2.77191566        2.99527382
 C           -0.26681857       -2.69261435        2.51529471
 C            2.94602174       -1.53404452        2.50965393
 C            2.11143801       -2.61580291        2.03141697
 C            3.21678780        0.86001567        2.25025198
 C            3.13029832       -0.42716873        1.68859895
 C            3.20701667        1.95397961        1.39697735
 C            1.05420500        2.51865584        2.38500323
 C            2.05618169        2.84057310        1.47675142
 C           -0.99228125        1.20419135        2.45767057
 C           -0.22656274        2.23055423        1.88938603
 C           -1.77027848       -0.95702594        1.74956788
 C           -1.79913096        0.43443644        1.62701160
 C           -2.21604913       -1.75155644        0.69225315
 C           -0.48696389       -3.34904129        1.31643856
 C           -1.65120016       -3.01042545        0.53156903
 C            1.76887554       -2.68320464        0.68250025
 C            0.63123541       -3.42274298        0.38711310
 C            2.92216855       -0.58180815        0.31158148
 C            2.11667477       -1.62422443       -0.16912553
 C            3.51544441        1.75374820       -0.00058367
 C            3.31358126        0.43291189       -0.55039430
 C            1.69875721        3.22597511        0.12936254
 C            2.69950673        2.67973307       -0.76349550
 C           -0.59749700        2.69217851        0.62365656
 C            0.37422361        3.15436880       -0.27034695
 C           -2.30983617        1.01934645        0.47414194
 C           -1.82231751        2.27630091        0.10063620
 C           -2.86338117       -1.16142190       -0.39713848
 C           -3.00327547        0.22646228       -0.44414754
 C           -3.05027344       -1.91210655       -1.56196696
 C           -1.36248817       -3.48134742       -0.80611327
 C            0.08297623       -3.38678127       -0.94900992
 C           -2.15199203       -3.01988360       -1.84086686
 C            1.52940005       -1.52706303       -1.44703414
 C            0.61288034       -2.49801366       -1.87726609
 C            2.62677081        0.59063141       -1.81683704
 C            2.23642542        1.98429461       -1.94768146
 C            1.72109601       -0.37781492       -2.22507197
 C            0.11352717        3.05705439       -1.63533315
 C            0.95496627        2.25318542       -2.41589654
 C           -2.23601422        2.84256030       -1.09969285
 C           -1.20260492        3.23376874       -2.04128703
 C           -3.60729447        0.82058511       -1.55014906
 C           -3.30272848        2.20622589       -1.84437957
 C           -3.29850928       -1.23927891       -2.82586927
 C           -3.64415838        0.10287288       -2.81461865
 C           -1.49531331       -2.71830083       -3.09710331
 C           -0.10410600       -2.29677590       -3.05774583
 C           -2.26592343       -1.67955622       -3.75313268
 C            0.75820772       -0.01858165       -3.16739370
 C            0.37896478        1.32322282       -3.28055331
 C           -0.01785345       -1.01686593       -3.73683451
 C           -1.33080714       -0.69981526       -4.27884425
 C           -1.59222966        2.74283997       -3.34767108
 C           -2.97259920        2.30454741       -3.25576748
 C           -3.04715142        0.96954058       -3.81637922
 C           -0.81043927        1.66462252       -3.91843102
 C           -1.73429530        0.62534904       -4.34042309
