   70
C70 / DATE: 7/ 1/2024 / Origin: Program Fullerene / C70 from database
 C            1.55952212       -0.02791821        4.66038998
 C            0.76313215       -1.21378336        4.41855924
 C            1.37066722       -1.96194543        3.32901949
 C            2.69343124       -0.07352330        3.76000824
 C            2.55688279       -1.24215950        2.90534835
 C            2.78299585        1.22197192        3.12224090
 C            0.75294449        1.12195598        4.28313599
 C            1.48061036        1.85553689        3.26913098
 C           -0.61104574       -0.78438500        4.26076797
 C           -0.57353303        0.64050237        3.96459212
 C           -1.44015257       -1.58395623        3.49134401
 C            0.53269426       -2.51686279        2.36812326
 C           -0.82569390       -2.60274896        2.65297207
 C            0.93788293       -2.54809819        1.03342008
 C            2.81916329       -1.09869655        1.54570414
 C            2.05598310       -1.81071007        0.61605849
 C            3.38103335        1.27383203        1.87781994
 C            3.51872216        0.03306565        1.12418064
 C            2.89583026        2.25458781        0.93305791
 C            0.81089953        2.28665248        2.12298587
 C            1.56949548        2.67927664        1.01983366
 C           -1.20513244        1.09736013        2.81122317
 C           -0.54542656        1.98923964        1.94758438
 C           -2.45738911       -0.94578162        2.67643257
 C           -2.32597563        0.40062385        2.35875656
 C           -1.75342945       -2.88700853        1.57723101
 C           -2.80948081       -1.88476535        1.62572872
 C            0.10633685       -3.14264632        0.07853202
 C           -1.26772789       -3.27162417        0.33618393
 C            0.60089909       -3.31609633       -1.21273052
 C            2.28302083       -1.60870244       -0.74846845
 C            1.65937255       -2.43786104       -1.67161432
 C            3.52112394        0.39184050       -0.28654845
 C            3.41238715        1.84013270       -0.35319266
 C            2.79708127       -0.38699227       -1.18285634
 C            2.85459495        2.41096582       -1.47885228
 C            0.93341401        3.12387106       -0.14104162
 C            1.71485841        3.28502860       -1.28996032
 C           -1.19370325        2.43014450        0.79139939
 C           -0.46120021        3.02303545       -0.24243442
 C           -3.03878576        0.89416859        1.27877688
 C           -2.51012095        2.03472435        0.55961725
 C           -3.33837899       -1.40502235        0.42783455
 C           -3.58533471       -0.03699335        0.29835002
 C           -2.17849932       -3.23410496       -0.71436438
 C           -3.17863166       -2.17994412       -0.72185722
 C           -0.31110330       -3.51552361       -2.32403854
 C           -1.73160741       -3.43662120       -2.07489317
 C            1.23823946       -1.86456608       -2.93797417
 C            0.01340767       -2.53051177       -3.34190155
 C            2.30502144        0.19161485       -2.35831139
 C            2.50989110        1.54927192       -2.59262560
 C            1.33938055       -0.48789118       -3.10043708
 C            1.09298418        3.41436073       -2.59104147
 C            1.53784876        2.27843026       -3.38780027
 C           -1.10970830        3.32341760       -1.44456526
 C           -0.34613446        3.47344674       -2.66593313
 C           -3.01248918        1.95502353       -0.80050413
 C           -3.47610861        0.59297826       -1.00827194
 C           -2.30148118        2.58135390       -1.80658623
 C           -3.10923372       -1.53275324       -2.02316679
 C           -2.27096504       -2.35063341       -2.87926665
 C           -1.16641360       -1.71783725       -3.56832023
 C           -2.99208104       -0.14968203       -2.08099415
 C            0.24059308        0.21644594       -3.60415652
 C            0.35674275        1.57825892       -3.85255676
 C           -0.78565280        2.42760695       -3.57724722
 C           -1.97464329        1.82204740       -3.00163101
 C           -1.03495539       -0.33716741       -3.49592155
 C           -2.07686930        0.43274367       -2.96427798
