   70
C70 / DATE: 7/ 1/2024 / Origin: Program Fullerene / C70 from database
 C            1.05781758        0.06794659        4.64580362
 C            2.27967545       -0.24082142        3.94010105
 C            2.28097846       -1.67305143        3.70907731
 C            0.26422963       -1.15568070        4.71072690
 C            0.90777162       -2.11412940        3.84185225
 C           -1.10878403       -0.79762986        4.43652721
 C            0.19290720        1.09712048        4.11174795
 C           -1.15100020        0.65011511        4.38500522
 C            0.44973269        1.65496491        2.85526854
 C            2.51551294        0.38849953        2.65697931
 C            1.53984377        1.20830777        2.09304545
 C            2.93620768       -1.90695633        2.44065862
 C            3.15717649       -0.60717308        1.81938515
 C            2.43238155       -2.92110623        1.64203288
 C            0.25044182       -2.57041419        2.69726185
 C            1.01422669       -3.25119289        1.75944400
 C           -1.71817837       -1.27496037        3.20723136
 C           -0.93532504       -1.94910450        2.27904811
 C           -2.15670324        1.00206423        3.42078751
 C           -2.58640162       -0.21331339        2.74702108
 C           -0.59074768        2.33032978        2.20636456
 C           -1.92058762        2.09031904        2.60546978
 C           -0.34838552        2.87531458        0.93937558
 C            1.53046245        1.38436753        0.70732636
 C            0.64937586        2.30283774        0.13588583
 C            3.02641439       -0.50829914        0.43796871
 C            2.33596893        0.57961443       -0.10920901
 C            2.72870625       -2.87416056        0.22763611
 C            3.16603233       -1.67088498       -0.32094765
 C            0.49720749       -3.42042767        0.41560971
 C            1.65632361       -3.59138273       -0.43695273
 C           -1.21835002       -1.80921009        0.91153509
 C           -0.54795688       -2.60841700       -0.01772319
 C           -2.89148277       -0.10507270        1.39026952
 C           -2.14018903       -0.84772267        0.46618040
 C           -2.91766585        2.30897007        1.67615693
 C           -3.41112096        1.12490753        0.98827594
 C           -1.34545818        3.65859316        0.36426876
 C           -2.71402020        3.34165805        0.69577760
 C           -1.32074521        3.92560750       -1.05471739
 C            0.68080899        2.51931846       -1.24998991
 C           -0.25299291        3.36101953       -1.85117424
 C            2.26503659        0.70761995       -1.49770653
 C            1.41521469        1.65633503       -2.06823280
 C            3.17852277       -1.56191590       -1.70319697
 C            2.82556466       -0.28705389       -2.30095660
 C            1.50400766       -3.40215023       -1.79678098
 C            2.50818622       -2.59961966       -2.47005613
 C           -0.68619913       -2.35730115       -1.38528275
 C            0.21498748       -2.93998667       -2.28188683
 C           -2.19741131       -0.53203552       -0.90034452
 C           -1.54735828       -1.35006339       -1.82693594
 C           -3.48783505        1.44850584       -0.41935645
 C           -3.35443936        2.89171317       -0.52189052
 C           -2.57679202        3.43092185       -1.61270064
 C           -2.82181965        0.64596334       -1.33715131
 C           -0.87843657        2.92906545       -3.08518770
 C           -2.21903884        2.54277707       -2.69560496
 C           -2.50640319        1.18050294       -2.59128669
 C            1.10596973        1.57443536       -3.43015587
 C           -0.18046611        2.05852224       -3.89883368
 C            2.25254670       -0.56952983       -3.60716230
 C            1.87278083       -1.97218181       -3.61033533
 C            0.45859595       -2.31210153       -3.56824990
 C            1.36574248        0.34172521       -4.15173955
 C           -1.56105605       -0.99747391       -3.17635788
 C           -1.95657229        0.34724671       -3.55410590
 C           -0.89712175        0.89375469       -4.38756294
 C           -0.44812661       -1.37594952       -4.03304291
 C            0.07781188       -0.15249053       -4.61428760
