   70
C70 / DATE: 7/ 1/2024 / Origin: Program Fullerene / C70 from database
 C            1.67854912        0.01750384        4.46062403
 C            0.83052827       -1.15369566        4.36067958
 C            1.37159427       -2.00988036        3.32059112
 C            2.64242784       -0.04444459        3.37585335
 C            2.42341485       -1.27309767        2.64320195
 C            2.56317651        1.20042413        2.64833774
 C            0.84334000        1.18379971        4.23652870
 C            1.47269904        1.98241793        3.20329968
 C           -0.54343958       -0.70550803        4.23337816
 C           -0.51404450        0.73039955        4.00652218
 C           -1.40821117       -1.48372876        3.48209155
 C            0.48817434       -2.74108375        2.53992635
 C           -0.88048267       -2.65816304        2.80776182
 C            0.88747631       -3.10372822        1.25801092
 C            2.41505918       -1.23686368        1.25041451
 C            1.76785769       -2.26091653        0.56170393
 C            2.68937862        1.18034977        1.26738055
 C            2.70758057       -0.04381450        0.58006357
 C            2.29384039        2.32179091        0.58050160
 C            0.66064009        2.66740631        2.30511154
 C            1.23497571        3.07434702        1.09959016
 C           -1.20694098        1.27697645        2.92940800
 C           -0.72250471        2.45175949        2.35146051
 C           -2.31315589       -0.83773928        2.54660499
 C           -2.13131447        0.50143619        2.22029353
 C           -1.82801598       -2.99228020        1.75634822
 C           -2.58601686       -1.78281503        1.47677520
 C            0.04653261       -3.95278244        0.55183727
 C           -1.38479428       -3.75583229        0.69031251
 C            0.31426924       -4.20998950       -0.84508798
 C            1.80542652       -2.27336440       -0.83587802
 C            1.26957461       -3.36161044       -1.52277320
 C            2.71527962       -0.02823573       -0.81934716
 C            2.16080351       -1.10671508       -1.53154729
 C            2.63610650        2.41721452       -0.76012567
 C            2.95584059        1.18783241       -1.46112461
 C            1.85827644        3.26005490       -1.65362727
 C            0.50622970        3.92133720        0.27129150
 C            0.73331966        3.90123201       -1.16186205
 C           -1.53579898        3.11162578        1.43737626
 C           -0.92346393        4.02028680        0.48597340
 C           -2.61844148        0.96712943        0.99799744
 C           -2.53308804        2.33142735        0.72772850
 C           -2.67004377       -1.30736983        0.16951044
 C           -2.86195384        0.05820767       -0.04007237
 C           -1.87374382       -3.43848224       -0.63602928
 C           -0.95239670       -4.08179259       -1.55041090
 C           -2.31654499       -2.14070274       -0.90202774
 C            0.75120555       -3.16039284       -2.85502142
 C           -0.67590498       -3.44123123       -2.81396237
 C            1.80714302       -0.96108464       -2.88845227
 C            0.91536974       -1.85827725       -3.45242882
 C            2.55425937        1.35927411       -2.83695486
 C            1.76460286        2.57600538       -2.92815477
 C            1.80167825        0.30093896       -3.45822010
 C            0.45041340        2.21838948       -3.43515225
 C            0.52364216        0.84191598       -3.89723901
 C           -0.55300623        3.67386229       -1.80703618
 C           -1.58257957        3.84200149       -0.79710497
 C           -2.58874913        2.80989916       -0.64424296
 C           -0.68077296        2.65972032       -2.75682319
 C           -3.05914089        0.51495265       -1.33609714
 C           -2.76589148        1.89567762       -1.66899541
 C           -1.84172205        1.88885147       -2.79586319
 C           -2.21904260       -1.61800170       -2.20182370
 C           -1.36118021       -2.20383099       -3.12974641
 C           -0.40140802       -1.36061603       -3.81794134
 C           -0.60277051        0.01980923       -3.83724186
 C           -2.61139691       -0.30682131       -2.44188666
 C           -1.79272398        0.52863507       -3.31418833
