   70
C70 / DATE: 7/ 1/2024 / Origin: Program Fullerene / C70 from database
 C            1.55168210        0.20087534        5.02058639
 C            0.75539647       -1.01222249        5.06370224
 C            1.50518289       -2.05026934        4.38492662
 C            2.65582545       -0.02532369        4.10026758
 C            2.68153821       -1.43173650        3.78612149
 C            2.52851782        0.92132887        3.00781531
 C            0.72241209        1.25177547        4.46076277
 C            1.42361088        1.80636774        3.32666608
 C           -0.57952307       -0.69032437        4.58937513
 C           -0.60507220        0.72063777        4.23206293
 C           -1.24886763       -1.59680559        3.77609313
 C            0.84467642       -2.83373656        3.35349066
 C           -0.52088064       -2.69465415        3.14850444
 C            2.71603995       -1.81930512        2.39239250
 C            1.72304221       -2.85540923        2.20175644
 C            2.67288389        0.50066039        1.67849417
 C            2.85635474       -0.86020485        1.38553459
 C            2.19487799        1.35456349        0.67316260
 C            0.67830945        2.27716628        2.26318107
 C            1.32555154        2.38272088        1.04640752
 C           -1.28233985        1.11453411        3.07849540
 C           -0.70832504        2.09085610        2.24989575
 C           -2.19442883       -1.09054037        2.79912691
 C           -2.27484902        0.27873922        2.56383507
 C           -1.05132379       -2.86966531        1.80508389
 C           -2.19449117       -1.99542287        1.65900564
 C            1.19603756       -2.98334174        0.92618332
 C           -0.18964802       -3.01013758        0.72758573
 C            2.64454505       -1.29305801        0.07574037
 C            1.98014678       -2.51141648       -0.11348474
 C            2.26496977        0.95507829       -0.66839666
 C            2.64926796       -0.35337572       -0.95541892
 C            1.71179827        1.76692448       -1.67151091
 C            0.70331239        3.14084836        0.07758135
 C            1.04976004        2.93415531       -1.30797271
 C           -1.42361580        2.55849010        1.14051274
 C           -0.74050198        3.27933654        0.16000688
 C           -2.97713326        0.68970974        1.44135931
 C           -2.62704744        1.94761581        0.80949874
 C           -2.50462936       -1.47567093        0.40418305
 C           -3.20462853       -0.27874498        0.38001404
 C           -0.68153553       -2.75205836       -0.55510485
 C           -1.74213377       -1.84642640       -0.71601135
 C            1.59541472       -2.87587032       -1.38977100
 C            0.16898797       -3.00743114       -1.62303681
 C            2.62604875       -0.80891926       -2.26887797
 C            2.16501729       -2.16021870       -2.50644784
 C            1.59718744        1.30221579       -2.98721504
 C            2.06201115        0.02912801       -3.31038252
 C            0.73167438        1.94502613       -3.87912157
 C           -0.08644792        3.38292005       -2.08590997
 C           -1.24972546        3.33511048       -1.20415281
 C           -0.20643625        2.94474035       -3.39136244
 C           -3.03159347        1.84777241       -0.58423865
 C           -3.32169471        0.44923931       -0.85724288
 C           -2.37250427        2.58508320       -1.56292199
 C           -1.93412258       -1.18539595       -1.94914300
 C           -2.83192227       -0.10382350       -2.02827778
 C           -0.11962642       -2.44786821       -2.92435167
 C            1.15246834       -2.11004807       -3.53928193
 C            1.26640419       -0.82454626       -4.19076523
 C           -1.17808534       -1.56098485       -3.07657637
 C            0.03238976        1.14278072       -4.86678165
 C            0.11462624       -0.29580920       -4.74675742
 C           -1.16650955       -0.75294495       -4.21652031
 C           -1.52442781        2.57446466       -3.86283930
 C           -2.50876665        2.15860198       -2.88340849
 C           -2.79456581        0.75055941       -3.12324759
 C           -1.37316533        1.49876895       -4.82522704
 C           -2.09740135        0.34491533       -4.31765243
