   70
C70 / DATE: 7/ 1/2024 / Origin: Program Fullerene / C70 from database
 C            0.96912893        0.04151551        4.82155369
 C            2.29747343       -0.31135685        4.38253522
 C            2.26536728       -1.72714399        4.04954740
 C            0.15408714       -1.16070263        4.71329144
 C            0.87315718       -2.06098938        3.83787116
 C           -1.16895157       -0.73928800        4.32476193
 C            0.25967032        1.08192467        4.10696834
 C           -1.13301787        0.70754740        4.17598131
 C            0.75372147        1.55805548        2.89006732
 C            2.84328185        0.36666511        3.22505463
 C            2.01051054        1.15013718        2.42458345
 C            3.18540839       -1.91972724        2.95780737
 C            3.69598683       -0.60687856        2.58311458
 C            2.68889041       -2.51910382        1.73868086
 C            0.40739367       -2.27474126        2.53279265
 C            1.31046804       -2.62401534        1.51806445
 C           -1.72665732       -1.26104745        3.09551338
 C           -0.92772784       -1.99022411        2.20934283
 C           -1.97495020        1.03546492        3.04748216
 C           -2.55052740       -0.19725605        2.55692321
 C           -0.13073366        2.16857284        1.99578732
 C           -1.50941309        1.92462151        2.09575864
 C            0.37250476        2.71789109        0.81319939
 C            2.33251029        1.33714690        1.07540368
 C            1.59609489        2.25307310        0.32004201
 C            3.78542551       -0.59402002        1.13762949
 C            3.50899762       -1.94691613        0.69461381
 C            3.20791050        0.45132005        0.42482756
 C            3.09206686       -2.12057141       -0.60943406
 C            0.86361627       -2.74487703        0.19793256
 C            1.80679811       -2.75748802       -0.82637030
 C           -1.35832235       -2.08085524        0.88343280
 C           -0.47084004       -2.48558438       -0.11817715
 C           -2.87420176       -0.25911676        1.21061416
 C           -2.53599941       -1.41842905        0.52782463
 C           -2.28102099        2.06148144        0.95094059
 C           -2.96620898        0.93024394        0.47931996
 C           -0.51431544        3.38952144       -0.03155247
 C           -1.92410050        3.07268044        0.07735796
 C           -0.20768827        3.54834546       -1.44296625
 C            1.91798240        2.42122169       -1.02544834
 C            0.94508822        2.97556521       -1.94777212
 C            3.12502864        0.30820930       -0.95979590
 C            3.12634444       -0.97410847       -1.50224645
 C            2.61661559        1.35467978       -1.71356516
 C            1.39889581       -2.40318743       -2.16843426
 C            2.22609987       -1.28257781       -2.59779045
 C           -0.89127876       -2.48416430       -1.45787480
 C            0.05283673       -2.38313387       -2.49136993
 C           -3.04615368       -1.58063988       -0.74703216
 C           -2.24510210       -2.28113736       -1.72757042
 C           -3.37482715        0.84684836       -0.85915939
 C           -3.61362661       -0.41515572       -1.40424003
 C           -2.50721567        3.10866122       -1.24261782
 C           -1.44478120        3.40992550       -2.18888907
 C           -3.20667579        1.93395267       -1.71697171
 C           -1.51961055        2.43042626       -3.25864464
 C           -2.77354626        1.71042523       -3.08797583
 C            0.86609860        2.08829899       -3.10181811
 C            1.89755590        1.07208175       -2.95020092
 C            1.63206311       -0.24765581       -3.31662413
 C           -0.37062062        1.73863075       -3.64225732
 C           -0.27854184       -1.72729452       -3.67315920
 C            0.47122698       -0.53544547       -4.03111207
 C           -0.49624000        0.51702078       -4.29532822
 C           -2.67177672       -1.81247568       -3.03512899
 C           -3.47705854       -0.61682793       -2.83627804
 C           -2.91475636        0.44842124       -3.64756317
 C           -1.66411222       -1.50734858       -4.02208229
 C           -1.80570583       -0.10909168       -4.39917076
