   70
C70 / DATE: 7/ 1/2024 / Origin: Program Fullerene / C70 from database
 C            1.31020822        0.12217546        5.10011976
 C            0.54725214       -1.05760502        4.73339439
 C            1.45825295       -1.97491031        4.09017308
 C            2.55867050        0.07964387        4.35693829
 C            2.71194312       -1.26788562        3.85948199
 C            2.54056035        1.17287623        3.39964479
 C            0.57187524        1.28238665        4.63963744
 C            1.45800252        2.05964943        3.79662690
 C           -0.62387779       -0.62036898        3.99705281
 C           -0.68334014        0.82797410        4.06436384
 C           -0.96058615       -1.23401324        2.79534407
 C            1.06279878       -2.56710149        2.82661252
 C           -0.17164011       -2.26298698        2.26561126
 C            3.04897655       -1.44930406        2.46299772
 C            2.22030087       -2.52988509        1.96124401
 C            2.74963460        0.90927670        2.03975318
 C            3.24510843       -0.34149220        1.64079628
 C            2.23965510        1.80383187        1.08565742
 C            0.87152725        2.84693719        2.82408942
 C            1.47665962        2.88211674        1.50806040
 C           -1.18957804        1.52395430        2.96782728
 C           -0.55909955        2.70681244        2.59792378
 C           -1.83907588       -0.56807565        1.94580013
 C           -1.91381142        0.83025145        1.99446798
 C           -2.32987072       -1.24676519        0.83375086
 C           -0.37469850       -2.62055260        0.93656013
 C           -1.60970220       -2.34384831        0.35918700
 C            2.01887821       -2.60171561        0.58809219
 C            0.73196011       -2.85019491        0.10610503
 C            3.39410671       -0.60659790        0.28554236
 C            2.88236622       -1.87308497       -0.21596002
 C            2.26883017        1.48461521       -0.27443486
 C            3.03752043        0.40956649       -0.68470791
 C            1.34962563        2.06177143       -1.16764811
 C            0.46821324        3.40846703        0.61839728
 C           -0.81819470        3.25215602        1.28261598
 C            0.52709885        3.11711997       -0.73623309
 C           -2.44315753        1.53104701        0.90324198
 C           -1.87774581        2.75799566        0.53036545
 C           -3.24597166       -0.60050327        0.01229182
 C           -3.27583069        0.84996054        0.01632563
 C           -3.44480157       -1.05321572       -1.35292964
 C           -1.88031124       -2.87652264       -0.89561488
 C           -2.86076857       -2.24137903       -1.75980368
 C            0.53062374       -2.95525141       -1.27438379
 C           -0.75388778       -3.27798903       -1.71603896
 C            2.54556793       -1.68634516       -1.60929098
 C            2.70275310       -0.27296906       -1.91677611
 C            1.45533094       -2.35814897       -2.14936622
 C            1.18620494        1.51630867       -2.45873574
 C            1.80603218        0.30922681       -2.80237748
 C            0.22638198        2.04071822       -3.32520550
 C           -0.62566908        3.40971509       -1.45115466
 C           -1.90130483        3.14456889       -0.80767747
 C           -0.72417513        3.00869470       -2.83008513
 C           -3.39535764        1.29342157       -1.36358930
 C           -3.37438963        0.11417858       -2.22026226
 C           -2.74131380        2.44627928       -1.76110865
 C           -2.05994113        2.46909104       -3.04174897
 C           -0.51641102        1.14157721       -4.18752320
 C           -2.58371872        0.08413797       -3.37384154
 C           -1.91354126        1.23451381       -3.78937206
 C           -2.38597055       -2.35437070       -3.12556127
 C           -1.12698629       -3.08314386       -3.10329314
 C           -2.18747406       -1.14302557       -3.90196045
 C            1.05027140       -1.93676716       -3.41277059
 C            1.20808675       -0.53052079       -3.74551025
 C            0.01688025       -0.10559664       -4.46226297
 C           -0.20168222       -2.39721821       -3.97280588
 C           -0.88427359       -1.24366229       -4.53605971
