   70
C70 / DATE: 7/ 1/2024 / Origin: Program Fullerene / C70 from database
 C            1.55691372       -0.00313684        4.71305564
 C            0.73735812       -1.19382669        4.59787496
 C            1.43025493       -2.12759819        3.73146254
 C            2.65895681       -0.13287904        3.77347189
 C            2.55397432       -1.42088756        3.13332358
 C            2.65812058        1.03662243        2.93297497
 C            0.75059370        1.12726681        4.28772012
 C            1.51951128        1.86108627        3.31179444
 C           -0.59992109       -0.78165271        4.22753041
 C           -0.54391022        0.63160193        3.88000469
 C           -1.33972760       -1.63505452        3.42675332
 C            0.68570167       -2.97261985        2.91498301
 C           -0.70900896       -2.83304141        2.88370718
 C            1.34141263       -3.51920144        1.81611166
 C            2.74266439       -1.52173233        1.75587672
 C            2.38665557       -2.73313027        1.17617138
 C            2.93153130        0.90202202        1.57426252
 C            2.77742949       -0.35663795        0.96397098
 C            2.72064716        2.04459384        0.81511390
 C            0.85231493        2.51616369        2.28602957
 C            1.65520301        2.93597425        1.23935347
 C           -1.05821438        1.05971081        2.65658803
 C           -0.47389727        2.15489046        1.99515369
 C           -2.16191680       -1.06996258        2.37358115
 C           -1.96408552        0.24664367        1.97293543
 C           -1.46408804       -3.20211835        1.69115537
 C           -2.33862063       -2.08857606        1.35525910
 C            0.57806233       -4.17648654        0.77524696
 C           -0.84119979       -3.90233166        0.67091721
 C            2.18849327       -2.81646850       -0.25352178
 C            1.19649145       -3.84162661       -0.49621136
 C            2.51037451       -0.43666725       -0.41905218
 C            2.11362475       -1.64855269       -0.99319395
 C            2.66315535        1.95405875       -0.62573429
 C            2.57419088        0.70881113       -1.22235594
 C            1.03616565        3.48201802        0.05981963
 C            1.79586262        3.02597403       -1.09021666
 C           -1.07055637        2.62944676        0.81490755
 C           -0.34436183        3.48684209       -0.02844632
 C           -2.39253451        0.63183604        0.71119370
 C           -2.18265887        1.94320673        0.31270553
 C           -2.47337670       -1.68842949        0.02839168
 C           -2.71444537       -0.33791871       -0.24432126
 C           -1.11912742       -3.54023617       -0.70734743
 C            0.13911560       -3.54662928       -1.43802178
 C           -2.04028556       -2.53453267       -0.99790524
 C            1.40344163       -1.65189779       -2.19683311
 C            0.33830917       -2.54415759       -2.37931880
 C            2.14046587        0.65296013       -2.54422465
 C            1.54390386       -0.56754629       -3.05331243
 C            1.12820693        2.89341788       -2.30447075
 C            1.40768086        1.78247860       -3.10574457
 C           -0.87649185        3.84902541       -1.25933169
 C           -0.08614098        3.56705525       -2.45155084
 C           -2.82372831        2.39218394       -0.83333403
 C           -2.24839135        3.50677396       -1.55015298
 C           -3.02842277        0.05664163       -1.54507449
 C           -3.25618317        1.40610163       -1.80951824
 C           -2.04515692       -2.05405811       -2.30353135
 C           -0.79712662       -2.10211963       -3.04793263
 C           -2.67550922       -0.78199805       -2.59759920
 C            0.45105077       -0.19930366       -3.94000777
 C            0.40165935        1.25142635       -4.01877300
 C           -0.73003795       -0.92455023       -3.89260781
 C           -1.99966833       -0.22834372       -3.76287418
 C           -1.00046377        3.18347429       -3.51075477
 C           -2.34946373        3.23784652       -2.97353837
 C           -2.93752776        1.92176286       -3.13111917
 C           -0.82351797        1.89531525       -4.15004833
 C           -2.05973087        1.14067700       -3.98142063
