   70
C70 / DATE: 7/ 1/2024 / Origin: Program Fullerene / C70 from database
 C            1.61397523        0.03282958        4.56182680
 C            0.78499523       -1.15238274        4.55336561
 C            1.25449163       -2.03192793        3.49310983
 C            2.58636830       -0.11057450        3.49561054
 C            2.29117240       -1.32562883        2.76355528
 C            2.58380223        1.12799981        2.75633401
 C            0.75926518        1.15890660        4.22034370
 C            1.40573749        1.87644195        3.14759758
 C           -0.59658845       -0.71247080        4.50211455
 C           -0.57332014        0.64758790        3.98594130
 C           -1.51047804       -1.59555008        3.96086079
 C            0.29711639       -2.74309951        2.78415830
 C           -0.98594719       -2.79316499        3.33354125
 C            0.45773927       -2.90955773        1.40262846
 C            2.22375408       -1.25483876        1.37418673
 C            1.32480924       -2.06969177        0.68532019
 C            2.84581760        1.08367609        1.39927405
 C            2.76819341       -0.14469713        0.72724823
 C            2.52754413        2.22468259        0.67774031
 C            0.63346783        2.39927717        2.11699128
 C            1.32908292        2.86974551        1.00458816
 C           -1.19635732        0.92949984        2.76746033
 C           -0.67552802        1.92260277        1.92744939
 C           -2.48516021       -1.08378231        3.01919656
 C           -2.16439221        0.05042466        2.27585409
 C           -2.07634793       -3.34097729        2.55823165
 C           -3.01832206       -2.24777774        2.34053293
 C           -0.44836093       -3.70656942        0.71289003
 C           -1.77210175       -3.92128805        1.27079773
 C           -0.62789335       -3.50093167       -0.70564094
 C            1.22934300       -1.96392490       -0.71411289
 C            0.29431623       -2.74121141       -1.41527534
 C            2.82578689       -0.13054313       -0.66637698
 C            1.96871447       -0.97370847       -1.39279600
 C            3.03009617        2.29290355       -0.60989839
 C            3.31962397        1.03097863       -1.25860938
 C            2.40350667        3.15602939       -1.58950765
 C            0.60071644        3.52712169        0.02302059
 C            1.15090995        3.68582356       -1.31194055
 C           -1.33768515        2.21730558        0.73015386
 C           -0.80767812        3.20783482       -0.09838346
 C           -2.57204480        0.15208537        0.94173928
 C           -2.28698519        1.31873071        0.22951383
 C           -3.26702887       -2.16897522        0.91916656
 C           -2.72688578       -3.37132392        0.32807475
 C           -2.04192894       -3.23210980       -0.93650512
 C           -3.04428880       -0.97349568        0.24811019
 C           -2.35444765       -2.14706925       -1.74647343
 C           -2.92341277       -1.01524445       -1.14217006
 C           -0.11938378       -2.31693429       -2.67010951
 C           -1.52052833       -1.97112068       -2.84111418
 C            1.75685113       -0.75786483       -2.76870890
 C            0.66350215       -1.34491539       -3.38823077
 C            3.18481035        1.23179851       -2.68029322
 C            2.67732891        2.58175259       -2.89387584
 C            2.34713863        0.32299955       -3.42035335
 C            1.60991761        2.50523278       -3.87163167
 C            1.53105334        1.12565218       -4.31812841
 C            0.05715145        3.53744798       -2.26379522
 C           -1.15416535        3.25235188       -1.50865311
 C            0.27080023        2.92283421       -3.49495509
 C           -2.71295653        1.41217466       -1.09591024
 C           -2.97423488        0.18976356       -1.83332066
 C           -2.08463437        2.35423710       -2.00496480
 C           -1.58948457       -0.75113126       -3.61908396
 C           -0.25809436       -0.51007029       -4.14620637
 C            0.12831592        0.78327927       -4.46586209
 C           -0.65580943        1.90541169       -3.96557498
 C           -2.33976501        0.30952944       -3.13578877
 C           -1.83497576        1.66760103       -3.26427737
