   70
C70 / DATE: 7/ 1/2024 / Origin: Program Fullerene / C70 from database
 C            1.31402673       -0.03695375        4.34129746
 C            2.56592303       -0.28156520        3.66504946
 C            2.58523963       -1.67587005        3.25989413
 C            0.50216190       -1.24198919        4.23419771
 C            1.25239822       -2.21741840        3.46777413
 C           -0.80645644       -0.84326694        3.75517178
 C            0.49427980        1.07322985        3.89980399
 C           -0.87547714        0.60090532        3.87679991
 C            0.92731457        1.90624291        2.86779021
 C            2.89106970        0.51666414        2.50109037
 C            2.09025621        1.59764705        2.14155290
 C            3.16063204       -1.74523012        1.92687442
 C            3.33271680       -0.38163936        1.45116456
 C            2.66879236       -2.69989202        1.05195668
 C            0.63302266       -2.87657105        2.40917532
 C            1.44707759       -3.40106231        1.40720310
 C           -1.31515495       -1.45224287        2.61243030
 C           -0.71604928       -2.62117570        2.13079906
 C           -2.22654526       -0.75843605        1.80875580
 C           -1.78713089        1.28929911        3.09538081
 C           -2.56482799        0.55308923        2.11137590
 C            0.00002993        2.79337636        2.31501829
 C           -1.36428781        2.52415272        2.45835769
 C            0.41761661        3.66031775        1.31013970
 C            2.24209843        2.11416718        0.85558010
 C            1.59357046        3.30269116        0.54160967
 C            3.01304765       -0.05418199        0.13542662
 C            2.71488494        1.27597630       -0.16125680
 C            2.57305221       -2.37890089       -0.35976605
 C            2.65162490       -1.05591844       -0.77448995
 C            0.85110053       -3.88099141        0.17666682
 C            1.54285390       -3.22614224       -0.92902871
 C           -1.33909631       -3.30696572        1.08991208
 C           -0.52511209       -4.02552796        0.12123294
 C           -2.57377805       -1.27139614        0.56369841
 C           -2.39381332       -2.63232884        0.35553638
 C           -2.74888779       -0.39660028       -0.52278463
 C           -2.87280820        1.45932147        1.01989261
 C           -2.26743286        2.74209133        1.33947102
 C           -2.83177894        0.98571522       -0.29086885
 C           -0.56506781        4.20446021        0.38915758
 C           -1.87037506        3.57512682        0.30785915
 C            1.35750322        3.66421789       -0.84645941
 C            0.01915449        4.20876773       -0.94139371
 C            2.57110500        1.63990483       -1.49510047
 C            1.80322249        2.82055160       -1.85018612
 C            2.09692429       -0.70205107       -2.00565016
 C            2.26940238        0.60176758       -2.46249812
 C            0.81114328       -2.76147068       -2.01962284
 C            1.16236692       -1.54708556       -2.62150197
 C           -1.17642393       -3.91949425       -1.16925446
 C           -2.40105352       -3.15652891       -0.98917331
 C           -0.44833600       -3.30726103       -2.26522723
 C           -2.79633772       -0.88820370       -1.83653549
 C           -2.49715762       -2.22498037       -2.09007822
 C           -1.42003913       -2.53973408       -3.01776954
 C           -2.67388481        0.00083642       -2.89807070
 C           -2.61856556        1.89048212       -1.33623769
 C           -2.06871930        3.14230879       -1.06410463
 C           -0.92527089        3.58351298       -1.84724374
 C           -2.49582632        1.41326174       -2.63379343
 C            0.90538346        2.45381978       -2.93883234
 C            1.35286016        1.15923220       -3.44066603
 C           -0.46127726        2.75144338       -2.86205408
 C           -1.38195958        1.88537279       -3.44412745
 C            0.40923164       -1.08475281       -3.70365163
 C           -0.96487702       -1.53713334       -3.85701566
 C           -1.79083185       -0.35332594       -3.99721586
 C            0.45330139        0.32055463       -4.07619819
 C           -0.91174879        0.77378006       -4.24723961
