   70
C70 / DATE: 7/ 1/2024 / Origin: Program Fullerene / C70 from database
 C            1.30752034       -0.14591882        4.50890774
 C            2.57883266       -0.29808343        3.82772322
 C            2.56876125       -1.59082541        3.16620145
 C            0.47188325       -1.28533942        4.15317285
 C            1.21830192       -2.11192324        3.23256734
 C           -0.81565107       -0.77507522        3.73347955
 C            0.52426000        1.05519369        4.28368114
 C           -0.85172803        0.63102698        4.09145185
 C            1.04100413        2.08016446        3.49515812
 C            2.98119284        0.69452672        2.84709352
 C            2.25923653        1.87353312        2.72185159
 C            3.16616936       -1.42739434        1.85205846
 C            3.40284009       -0.01065795        1.64815321
 C            2.63703364       -2.14909039        0.78748062
 C            0.62800011       -2.51204756        2.04214337
 C            1.46939312       -2.88819880        1.00294071
 C           -1.34844886       -1.17497103        2.50768746
 C           -0.68883719       -2.13949654        1.73799202
 C           -2.35997779       -0.40441415        1.93153982
 C           -1.72869479        1.45478758        3.40679886
 C           -2.66344431        0.84084259        2.48319830
 C            0.13852753        2.88756583        2.68911833
 C           -1.22801547        2.66008468        2.75701368
 C            2.04725081        2.43645223        1.40076686
 C            0.75490408        3.09463570        1.38760844
 C            3.12940231        0.51947553        0.39011858
 C            2.43960959        1.73285544        0.27142837
 C            2.91993105       -1.70509975       -0.50480459
 C            3.16995542       -0.34233114       -0.70838496
 C            2.55817148       -2.51899147       -1.57468170
 C            0.90956468       -3.58826942       -0.05298685
 C            1.58549232       -3.56688647       -1.33545197
 C           -1.22812355       -2.52279888        0.50534580
 C           -0.51270842       -3.42240992       -0.29209339
 C           -2.83810963       -0.72027234        0.65848582
 C           -2.28432099       -1.79105843       -0.04790336
 C           -3.70174182        0.16891025        0.00915700
 C           -3.12069473        1.90355924        1.61508163
 C           -2.03441913        2.86998696        1.56696508
 C           -3.74818453        1.55951747        0.43168455
 C           -0.02703156        3.02873857        0.23349774
 C           -1.41740970        3.13319541        0.34344010
 C            1.85812636        2.06499988       -0.94830331
 C            0.55504231        2.59232954       -0.96713087
 C            3.04672017        0.21103446       -1.98033700
 C            2.41194618        1.50967463       -2.09441066
 C            2.25407119       -1.92820736       -2.86470528
 C            2.59572247       -0.60656697       -3.09500266
 C            0.57334292       -3.48830076       -2.37396705
 C           -0.72563271       -3.45512428       -1.73074320
 C            0.93835015       -2.40618977       -3.27030743
 C           -2.63328217       -1.98174020       -1.38509148
 C           -1.71370456       -2.65684014       -2.27703542
 C           -3.79771069        0.15611304       -1.44169318
 C           -3.20660990       -0.88329312       -2.13674090
 C           -3.46983446        2.36864652       -0.73915380
 C           -2.19888756        3.07119375       -0.80342886
 C           -3.57224543        1.50990422       -1.90492709
 C           -0.20246686        2.58943582       -2.14938156
 C           -1.57998807        2.74310568       -2.07139212
 C           -2.42533560        1.77135607       -2.75214094
 C            1.66748855        1.53742830       -3.33002425
 C            1.71528541        0.20654636       -3.91232813
 C            0.28652217        1.95391415       -3.28485302
 C           -0.03765394       -1.49508798       -3.67600447
 C           -1.37221895       -1.71586574       -3.33834487
 C           -2.28802029       -0.58727794       -3.23208642
 C           -1.81700637        0.71454073       -3.42658668
 C            0.34801209       -0.23627548       -4.12515954
 C           -0.51972940        0.90704827       -3.89340617
