   70
C70 / DATE: 7/ 1/2024 / Origin: Program Fullerene / C70 from database
 C            1.56773855        0.03458365        4.74482172
 C            0.74793057       -1.15954766        4.76512988
 C            1.37577647       -2.14332458        3.89798449
 C            2.59083918       -0.15703507        3.73176094
 C            2.36410644       -1.43870165        3.09779408
 C            2.58669790        1.01776080        2.89190462
 C            0.72732136        1.13574175        4.30709821
 C            1.43498451        1.82241649        3.24951549
 C           -0.62309751       -0.76439159        4.48549712
 C           -0.58645591        0.60821606        4.00581396
 C           -1.44172966       -1.67727156        3.83964816
 C            0.55953984       -3.07295265        3.27626849
 C           -0.87765442       -2.96820378        3.47959320
 C            0.76826739       -3.35719703        1.86656768
 C            2.28890871       -1.48728752        1.70486986
 C            1.53013894       -2.48245222        1.08550923
 C            2.83613061        0.87159587        1.53623872
 C            2.74185410       -0.40062198        0.95185188
 C            2.55633142        1.97216684        0.73462621
 C            0.70882421        2.36301519        2.19587393
 C            1.43274814        2.73764442        1.06637813
 C           -1.15766109        0.92625586        2.77479280
 C           -0.63166362        1.98524205        2.02380542
 C           -2.24698103       -1.22997443        2.71433307
 C           -2.03791355        0.03099587        2.16510620
 C           -1.52787997       -3.41237303        2.26240549
 C           -0.49298364       -3.85990399        1.34959950
 C           -2.42404299       -2.35779914        1.81790030
 C           -0.73873736       -3.73127275       -0.00395149
 C            1.32471931       -2.44210308       -0.29874310
 C            0.32511991       -3.23372306       -0.85423830
 C            2.73816219       -0.49009386       -0.44130801
 C            1.87845729       -1.40763701       -1.06138859
 C            3.00846345        1.92311688       -0.57540374
 C            3.21013519        0.60973807       -1.15204504
 C            2.40394698        2.76663370       -1.58861351
 C            0.75976568        3.45482380        0.08758355
 C            1.25381491        3.47254782       -1.27821631
 C           -1.29501208        2.38225397        0.85774979
 C           -0.68341449        3.33421905        0.04234167
 C           -2.43663658        0.26659661        0.85326347
 C           -2.27548359        1.54316575        0.32106729
 C           -2.52495136       -2.11648950        0.45191143
 C           -1.94165534       -3.02799403       -0.41934808
 C           -2.72040739       -0.81051275        0.00345304
 C           -0.31121399       -2.80509617       -2.08039353
 C           -1.72923877       -2.63381755       -1.79500059
 C            1.46473512       -1.22074558       -2.39632289
 C            0.31194717       -1.85323279       -2.87365903
 C            2.96561570        0.70852599       -2.57170073
 C            2.48009259        2.05428127       -2.84827554
 C            2.04486173       -0.22482623       -3.17814450
 C            1.28738093        1.92972210       -3.66550945
 C            1.20728758        0.53939388       -4.08555990
 C            0.10214678        3.41735038       -2.16897026
 C           -1.09576400        3.48289265       -1.34076533
 C            0.12047784        2.60738523       -3.30820454
 C           -2.84049764        1.82590661       -0.91985575
 C           -2.25076985        2.85055426       -1.76644406
 C           -2.88623756       -0.57736230       -1.36481810
 C           -2.35565011       -1.49565568       -2.28617106
 C           -3.22581703        0.71371112       -1.76948221
 C           -0.48507654       -1.20265370       -3.81684783
 C           -0.02420826        0.02106889       -4.45056412
 C           -1.89933020       -1.04790738       -3.52199703
 C           -1.08609899        2.21364367       -3.88348398
 C           -2.32197524        2.39005843       -3.13943379
 C           -3.03464013        1.12349927       -3.14834953
 C           -1.16013604        0.92365891       -4.54640962
 C           -2.33425277        0.22977813       -4.04043947
