   70
C70 / DATE: 7/ 1/2024 / Origin: Program Fullerene / C70 from database
 C            1.06028431       -0.07742427        4.70545500
 C            2.30626199       -0.45459848        4.07740302
 C            2.20237903       -1.85354748        3.69440454
 C            0.20721164       -1.25586530        4.73424450
 C            0.81700045       -2.25164033        3.87514116
 C           -1.14124418       -0.82520202        4.44636196
 C            0.28744954        1.00070321        4.12097916
 C           -1.10546193        0.60598330        4.18755858
 C            0.73329226        1.63354882        2.96276279
 C            2.74458756        0.28129644        2.90938284
 C            2.01210729        1.37194452        2.44472283
 C            2.80353091       -1.99983745        2.37937051
 C            3.21835438       -0.67949378        1.93495855
 C            2.19979191       -2.85053908        1.46827739
 C            0.11682669       -2.75957183        2.77873876
 C            0.85426214       -3.33047193        1.73921825
 C           -1.84398997       -1.44127575        3.34138112
 C           -1.24285499       -2.45426688        2.59443364
 C           -1.95184105        0.86836771        3.03435075
 C           -2.55713646       -0.38752171        2.63817901
 C           -0.21121831        2.26544068        2.15317356
 C           -1.48775674        1.71337023        2.03656178
 C            0.24178442        3.11595281        1.15665687
 C            2.33295329        1.86766414        1.17801433
 C            1.60507084        2.95239997        0.69733802
 C            3.11168491       -0.33183035        0.59325362
 C            2.99450341        1.02148571        0.27839674
 C            2.26815234       -2.53110926        0.05371027
 C            2.70783147       -1.28040169       -0.35432902
 C            0.22861612       -3.60995274        0.46147709
 C            1.09628402       -3.09281752       -0.58758458
 C           -1.88318707       -2.82415076        1.41341756
 C           -1.13837458       -3.45686106        0.33787744
 C           -2.87587973       -0.58812953        1.29873171
 C           -2.81929092       -1.88580510        0.81015306
 C           -2.08103918        1.64133454        0.77807158
 C           -2.74898925        0.46939634        0.39448711
 C           -0.59354622        3.35091547       -0.00828116
 C           -1.75824789        2.60928056       -0.17389442
 C            1.64719011        3.29434332       -0.71330726
 C            0.28195422        3.55725575       -1.15071517
 C            3.13534994        1.38843443       -1.05548668
 C            2.51366966        2.60658486       -1.54369778
 C            2.38234145       -0.84825640       -1.63833047
 C            2.92620565        0.36054567       -2.05493048
 C            0.53546092       -2.42669211       -1.67678241
 C            1.22745622       -1.35352718       -2.26101146
 C           -1.67911387       -2.97499940       -0.91914189
 C           -2.80090211       -2.10039030       -0.62170249
 C           -0.82072871       -2.61583207       -1.95596391
 C           -3.07075349        0.26356301       -0.95047550
 C           -3.03378906       -1.03499901       -1.48195522
 C           -2.32273016        2.53910639       -1.44163436
 C           -3.09964250        1.36851511       -1.79962385
 C           -0.15134645        3.15223115       -2.41300262
 C           -1.50985922        2.90129645       -2.59453207
 C            2.13532972        2.38580491       -2.92576361
 C            2.43046240        0.99758301       -3.25141083
 C            0.76701706        2.64949413       -3.33739796
 C            0.71439968       -0.74797785       -3.41881487
 C            1.26377001        0.44043362       -3.89577686
 C            0.38356848        1.55374331       -4.21445967
 C           -1.38701203       -1.94519238       -3.03152733
 C           -2.62683880       -1.22405152       -2.79967978
 C           -0.55376005       -1.10323199       -3.86403078
 C           -2.98261313        1.18923211       -3.23642238
 C           -1.94578738        2.08853759       -3.71684071
 C           -0.96178804        1.30118559       -4.43816234
 C           -2.69240849       -0.13095644       -3.74387656
 C           -1.41526448       -0.07855395       -4.43809861
