   70
C70 / DATE: 7/ 1/2024 / Origin: Program Fullerene / C70 from database
 C            1.30316992       -0.22823623        5.52973025
 C            0.45982012       -1.38064939        5.28649445
 C            1.10774652       -2.19259856        4.27165080
 C            2.46292413       -0.34186567        4.66082702
 C            2.24068588       -1.45522354        3.75488470
 C            2.68185261        0.96452390        4.09456969
 C            0.56914989        0.95230900        5.10381602
 C            1.49651764        1.77377753        4.36736211
 C           -0.78450694       -0.90279460        4.70852381
 C           -0.63802359        0.51082493        4.43143684
 C            0.08425920       -2.57859540        3.33142808
 C           -1.09252709       -1.77272218        3.59436484
 C            0.42960991       -2.72125567        1.99888255
 C            2.32843739       -1.26171824        2.37041487
 C            1.59446380       -2.09950323        1.52286494
 C            2.92911985        1.06238570        2.67282763
 C            2.86515212       -0.07320941        1.85711807
 C            1.06952265        2.33078527        3.09796225
 C            2.21774732        2.24152762        2.23157333
 C           -0.91893005        0.95551551        3.13680574
 C           -0.16842843        1.98874974        2.55523388
 C           -1.72340809       -1.23063560        2.48044957
 C           -1.72212051        0.15919084        2.31725846
 C           -0.62811269       -2.84324687        1.11322670
 C           -1.73099206       -2.01049241        1.32393913
 C           -0.30819932       -3.22608609       -0.17271821
 C            1.77170712       -1.99613752        0.13757955
 C            0.98184180       -2.80208722       -0.68162357
 C            2.81603011        0.16005357        0.47710345
 C            2.33832690       -0.83260614       -0.39132967
 C            2.00015280        2.34564511        0.87701096
 C            2.73377186        1.49278501        0.07372306
 C           -0.37242792        2.28832000        1.20171014
 C            0.72493940        2.68590376        0.42998974
 C           -2.14329847        0.66654385        1.09467655
 C           -1.49480018        1.77930212        0.55567162
 C           -2.45036433       -1.53635737        0.22724493
 C           -2.81928495       -0.18935591        0.23513397
 C           -1.28289780       -3.04555403       -1.22356345
 C           -2.38586193       -2.23436745       -0.98252803
 C            0.80315442       -2.46263998       -2.08141031
 C           -0.53656721       -2.88435194       -2.45732484
 C            2.19345374       -0.52867864       -1.75710089
 C            1.29545916       -1.25449255       -2.55397309
 C            2.73784085        1.78727661       -1.27156215
 C            2.68555178        0.69092300       -2.20947451
 C            0.57571795        2.85963734       -0.94919092
 C            1.73652152        2.73107788       -1.71907027
 C           -1.72449449        2.11710922       -0.78062379
 C           -0.67589057        2.64392916       -1.54384633
 C           -3.42668534        0.36653263       -0.87821302
 C           -2.85154157        1.58571284       -1.41359166
 C           -3.13248109       -1.79122824       -2.06990000
 C           -3.77555142       -0.49585738       -1.98651429
 C           -1.15998778       -2.27126635       -3.53092465
 C           -2.56382865       -1.91552288       -3.40235936
 C            0.73368508       -0.69412888       -3.71376593
 C           -0.48733297       -1.17091212       -4.19750250
 C            2.19543053        1.25159610       -3.45395282
 C            1.65407288        2.57241478       -3.15209696
 C            1.18497157        0.53197081       -4.19090356
 C           -0.81467578        2.75072296       -2.93213961
 C            0.35943993        2.67841387       -3.77961881
 C            0.20352450        1.51092792       -4.62677634
 C           -2.91429262        1.50713219       -2.86441865
 C           -3.50741388        0.22693481       -3.21774122
 C           -2.77936270       -0.66067540       -4.10329893
 C           -1.50274425       -0.21803498       -4.62825299
 C           -1.85205387        1.99626638       -3.61067342
 C           -1.19668434        1.13636612       -4.59550491
