   70
C70 / DATE: 7/ 1/2024 / Origin: Program Fullerene / C70 from database
 C            1.53578171       -0.10641165        5.05660101
 C            0.76675216       -1.32835505        4.91522305
 C            1.67053186       -2.33256204        4.39653566
 C            2.72888720       -0.24893292        4.23785076
 C            2.83497192       -1.63920239        3.85935987
 C            2.65930654        0.74782750        3.18843646
 C            0.74833022        0.97358575        4.49274757
 C            1.55824493        1.64035816        3.49212072
 C           -0.44391412       -1.01089808        4.16725596
 C           -0.52650814        0.43372494        4.06150235
 C           -0.81391026       -1.78598796        3.06663221
 C            1.18276608       -3.21497018        3.36132681
 C           -0.12873213       -2.96930234        2.78648046
 C            2.92601980       -1.97168815        2.44846398
 C            2.13357660       -3.16300604        2.26137572
 C            2.84481743        0.38180009        1.85812054
 C            2.83526478       -0.96836366        1.48360087
 C            2.51754981        1.32370872        0.89236075
 C            0.89683442        2.22020401        2.41699191
 C            1.57275502        2.30888570        1.20154049
 C           -1.08765765        0.97984184        2.91664465
 C           -0.49068420        2.11816074        2.37678120
 C           -1.60897669       -1.21450177        2.06464561
 C           -1.84282938        0.16255911        2.07343296
 C           -1.85830799       -1.93902860        0.89604725
 C           -0.02654941       -3.39433198        1.41017999
 C            1.36980276       -3.28086485        1.03658818
 C           -0.94211835       -2.91442841        0.49693231
 C            2.44991264       -1.31009062        0.17710402
 C            1.67110774       -2.45383317       -0.04474606
 C            2.72199343        0.99227388       -0.43598998
 C            2.50941965       -0.33413121       -0.81840307
 C            2.57400551        2.00575081       -1.36882860
 C            0.97471818        3.02889546        0.16227902
 C            1.57671280        3.02282194       -1.09475085
 C           -1.15821062        2.77298044        1.35640375
 C           -0.38354935        3.33056025        0.25731713
 C           -2.49549238        0.75530524        0.99166539
 C           -2.31432499        2.12198475        0.77521112
 C           -2.69625838       -1.40080474       -0.08728489
 C           -3.02033718       -0.03688794       -0.03269015
 C           -2.74329973       -2.07820748       -1.30995133
 C           -0.53869975       -2.90170462       -0.82664143
 C            0.75254316       -2.44462966       -1.09957413
 C           -1.53499625       -2.73370015       -1.76411960
 C            1.96100863       -0.60982785       -2.07358151
 C            0.96390336       -1.58504133       -2.18104518
 C            2.49025192        1.66119869       -2.77213173
 C            2.17842285        0.29020129       -3.11228862
 C            0.74488532        3.13548908       -2.28282648
 C            1.46777653        2.50453019       -3.36824651
 C           -1.21865480        3.27804117       -0.93565296
 C           -2.48412845        2.67281248       -0.55578723
 C           -0.63408186        2.96802748       -2.16145865
 C           -3.61675870        0.59944815       -1.12795393
 C           -3.18310332        1.93645122       -1.48995018
 C           -3.36738984       -1.47677645       -2.46940464
 C           -3.83440530       -0.11723632       -2.36929382
 C           -1.20232018       -2.17741619       -3.05493913
 C            0.01905959       -1.53382311       -3.21862351
 C           -2.41084186       -1.54774419       -3.56528612
 C            1.25105478        0.33435287       -4.22128530
 C            0.73428144        1.69446281       -4.31022196
 C            0.11311039       -0.55880917       -4.20750890
 C           -1.35923496        2.23725479       -3.11751544
 C           -2.67895557        1.87112057       -2.84923240
 C           -3.21152043        0.65170090       -3.43795434
 C           -2.31417215       -0.22984857       -4.16666715
 C           -0.70654093        1.61180872       -4.18285725
 C           -1.05889586        0.24521909       -4.52106670
