   70
C70 / DATE: 7/ 1/2024 / Origin: Program Fullerene / C70 from database
 C            1.29350853        0.05944511        4.15136754
 C            2.54699452       -0.36293851        3.57037058
 C            2.47404232       -1.79937197        3.34779511
 C            0.47820112       -1.12673882        4.34791791
 C            1.11164235       -2.21663234        3.62687135
 C           -0.89026551       -0.77976140        4.01814003
 C            0.48572158        1.02358911        3.43229687
 C           -0.89563704        0.58897937        3.52245863
 C            0.93455774        1.55652045        2.22705788
 C            2.97335587        0.24406322        2.32687513
 C            2.20384979        1.23868422        1.72332441
 C            3.04064807       -2.07321024        2.04050384
 C            3.50568494       -0.81199877        1.48881987
 C            2.39272855       -2.96639617        1.20429543
 C            0.38419808       -2.90013378        2.65141734
 C            1.03102745       -3.38254862        1.51124348
 C           -1.66603381       -1.72083124        3.36239296
 C           -1.00824936       -2.81060022        2.65035953
 C           -2.75935158       -1.25731228        2.52958425
 C           -1.77126980        0.93529739        2.49550924
 C           -2.84985051        0.09597330        2.20733094
 C            0.00165039        2.15102729        1.38206036
 C           -1.36263115        1.87456080        1.54464029
 C            0.45003037        2.81749941        0.24707192
 C            2.50038302        1.56739434        0.39894560
 C            1.71904116        2.52464728       -0.25309731
 C            3.48244476       -0.61239062        0.11379540
 C            3.30392320        0.69234274       -0.34462206
 C            2.48406500       -2.77206362       -0.23099473
 C            3.17537303       -1.67978634       -0.74099120
 C            0.29929846       -3.47340019        0.25449525
 C            1.19631876       -3.09923630       -0.81956056
 C           -1.73277183       -3.01778475        1.40545330
 C           -2.95776340       -2.24697795        1.48275090
 C           -1.02291779       -3.06165959        0.21077503
 C           -3.56804887       -1.84457030        0.30615952
 C           -3.74627299        0.46872842        1.21141782
 C           -4.23367457       -0.55742660        0.30444139
 C           -2.29151180        2.36272105        0.62277921
 C           -3.47921254        1.65799075        0.42056208
 C           -0.46149333        3.52805481       -0.52762177
 C           -1.88056901        3.27114244       -0.34981332
 C           -0.21406743        3.70621207       -1.95141787
 C            2.06026586        2.93205835       -1.53980693
 C            1.00607408        3.29968595       -2.46396138
 C            3.57449377        0.95848192       -1.67990329
 C            3.00623233        2.13706578       -2.29923677
 C            2.99074083       -1.41058305       -2.09411040
 C            3.43558336       -0.13454122       -2.61718085
 C            0.72882267       -2.31402247       -1.86972124
 C            1.68163747       -1.69232638       -2.67104976
 C           -1.48049252       -2.33539570       -0.89153501
 C           -2.81271772       -1.94125308       -0.93590591
 C           -0.56673652       -1.78806526       -1.79959102
 C           -4.16207010       -0.03098603       -1.04267164
 C           -3.93540378        1.39497617       -0.94089507
 C           -3.19402444       -0.82378206       -1.77928888
 C           -2.47606420        3.18237523       -1.67062068
 C           -1.40744420        3.25905167       -2.64456981
 C           -3.26383000        2.00944837       -1.98327056
 C           -0.91355750       -0.64937553       -2.54744187
 C           -2.22123907       -0.15714147       -2.51821496
 C           -1.35261449        1.98738084       -3.34777169
 C           -2.45179642        1.17415343       -2.86232975
 C            0.99770031        2.26100102       -3.47826530
 C            2.33550899        1.71173988       -3.52147488
 C            2.48282303        0.27773488       -3.63126489
 C            1.30139036       -0.55333984       -3.48214312
 C           -0.10453221        1.40902867       -3.54364779
 C            0.06415337        0.04552701       -3.26728817
