   70
C70 / DATE: 7/ 1/2024 / Origin: Program Fullerene / C70 from database
 C            1.19178327       -0.04078802        4.39277241
 C            2.44514672       -0.27247158        3.71932696
 C            2.40355785       -1.63070855        3.20950662
 C            0.35622685       -1.21601502        4.17326813
 C            1.01906458       -2.04002432        3.19085742
 C           -0.97096813       -0.73976585        3.88086367
 C            0.40115600        1.11183449        4.01178605
 C           -0.97501988        0.69091379        4.14445500
 C            0.75921752        1.87302044        2.89798616
 C            2.80327917        0.58517445        2.60758654
 C            1.91432481        1.55422499        2.16291874
 C            3.10460055       -1.63070552        1.95401800
 C            3.45052318       -0.25702530        1.62146368
 C            2.60930984       -2.40736592        0.92589792
 C            0.41229717       -2.26675518        1.95271837
 C            1.21848469       -2.62768250        0.86662768
 C           -1.63388982       -1.20936746        2.75227000
 C           -0.90838830       -1.84508281        1.72583800
 C           -2.84525621       -0.60193690        2.45835592
 C           -1.95738755        1.45905347        3.54436372
 C           -3.06353466        0.76130802        2.91732829
 C           -0.20338592        2.72356124        2.33849756
 C           -1.55410509        2.52848781        2.64016401
 C            0.10911770        3.44642358        1.19018746
 C            2.06055263        2.03061092        0.86541355
 C            1.35404450        3.16646403        0.50351103
 C            3.41658554        0.10650181        0.27117888
 C            2.64245173        1.21331110       -0.11690604
 C            3.30035992       -2.27051036       -0.26122669
 C            3.65173681       -0.91463205       -0.65540797
 C            2.81269480       -2.96790531       -1.42033548
 C            0.61663658       -2.93455173       -0.35950935
 C            1.42585707       -3.36953592       -1.41236757
 C           -1.47815831       -2.00198550        0.44760339
 C           -0.70209699       -2.51885905       -0.60771448
 C           -3.38370254       -0.69791229        1.12662728
 C           -2.77464991       -1.52569160        0.19545721
 C           -3.50027994        1.55065000        1.78042837
 C           -2.53106288        2.59479619        1.56119639
 C           -3.76340591        0.64084929        0.69914971
 C           -0.91587333        3.60834600        0.17040991
 C           -2.07931229        2.85372823        0.27015925
 C            1.16037479        3.46565103       -0.89843768
 C           -0.25290151        3.74156187       -1.10301764
 C            2.26615443        1.35840679       -1.46185934
 C            1.56433164        2.47913172       -1.87621425
 C            3.21282309       -0.75348867       -2.02728948
 C            2.99978376       -2.08525379       -2.55716508
 C            2.30987095        0.26117396       -2.31390317
 C            0.97016416       -3.22255484       -2.77408042
 C            1.88427758       -2.30412140       -3.44365650
 C           -1.22127509       -2.55776742       -1.91652301
 C           -0.36310787       -2.72641191       -2.99763212
 C           -3.18544623       -1.34588987       -1.11685618
 C           -2.43450788       -1.94433928       -2.18950513
 C           -3.44021126        1.01254130       -0.59646319
 C           -2.48159812        2.02902206       -0.80534016
 C           -3.56632616       -0.00328086       -1.53103110
 C           -0.70636446        2.92359763       -2.20038317
 C            0.46155483        2.29459134       -2.79795783
 C           -1.87228122        2.17711446       -2.07241367
 C            1.30529996        0.08810042       -3.28195351
 C            1.09717057       -1.16303865       -3.86459471
 C           -0.25750404       -1.65421161       -3.97516822
 C            0.30568310        1.05976486       -3.42224330
 C           -2.51157556       -1.04269793       -3.32873651
 C           -3.08927546        0.20734660       -2.87050864
 C           -2.12059138        1.25323937       -3.08369021
 C           -1.28707164       -0.73180708       -4.04114337
 C           -0.98598280        0.67163879       -3.78895813
