   70
C70 / DATE: 7/ 1/2024 / Origin: Program Fullerene / C70 from database
 C            1.11101281       -0.12335639        4.94720107
 C            2.43916655       -0.45304823        4.46917279
 C            2.32427464       -1.65626152        3.65555122
 C            0.25864260       -1.26355687        4.66336489
 C            0.92557894       -2.05016223        3.64393837
 C           -1.06066132       -0.74600536        4.37749383
 C            0.43996616        1.04937380        4.40724263
 C           -0.95984004        0.70626278        4.29719697
 C            1.04138855        1.77231438        3.37867680
 C            3.14843051        0.53668860        3.68478793
 C            2.42756818        1.70785058        3.22023181
 C            2.98353403       -1.39875321        2.38652415
 C            3.66595302       -0.12769199        2.49999891
 C            2.29937039       -1.67172267        1.20924065
 C            0.29908494       -2.25336925        2.41450844
 C            1.08717728       -2.35631808        1.26718200
 C           -1.73054499       -1.18840310        3.17117275
 C           -1.07523578       -2.02555986        2.27341541
 C           -1.68765127        1.12454675        3.11564424
 C           -2.41299425       -0.03530701        2.63353861
 C            0.25709005        2.35237823        2.36974624
 C           -1.07224137        1.95011070        2.17640381
 C            0.88532573        3.11073946        1.38616472
 C            3.00766895        2.04440957        1.93678254
 C            3.55392167        0.81053598        1.39580169
 C            2.28719400        2.86064442        1.08622213
 C            2.60928530       -0.95278166        0.05385730
 C            3.07962407        0.35886889        0.16438015
 C            2.04486065       -1.37287926       -1.14784056
 C            0.48520727       -2.72630481        0.07056822
 C            1.16523667       -2.45590171       -1.11508007
 C           -1.63511163       -2.16845290        1.00456586
 C           -0.90241538       -2.84835170        0.04188413
 C           -2.75704196       -0.06040538        1.29434437
 C           -2.60654586       -1.25119149        0.58365238
 C           -1.64883823        2.02214094        0.90066424
 C           -2.67950032        1.12975651        0.58827246
 C            0.21138035        3.34083195        0.11835744
 C           -1.02705699        2.75392897       -0.11820246
 C            2.35674313        2.59473998       -0.33589441
 C            2.66457676        1.30534488       -0.77259302
 C            1.22606217        3.28297316       -0.92042767
 C            2.01570900       -0.49297097       -2.23206779
 C            2.17208876        0.87460436       -2.00453235
 C            1.50093872       -0.92807855       -3.45180292
 C            0.66888229       -2.97502022       -2.30346994
 C            0.91292895       -2.25171684       -3.53531126
 C           -1.52880445       -3.15804636       -1.15710910
 C           -0.70705888       -3.42940483       -2.32236902
 C           -3.05673915       -1.28609554       -0.74162505
 C           -2.64314781       -2.32754013       -1.57680909
 C           -3.26109467        1.15803795       -0.66786443
 C           -3.57365361       -0.11389482       -1.29876677
 C           -1.47558893        2.63236615       -1.43729034
 C           -2.70093392        2.02496136       -1.68243933
 C            0.84249981        2.92773468       -2.19942389
 C            1.49598262        1.78775505       -2.81591461
 C           -0.57222949        2.79592434       -2.48939480
 C            0.66799705       -0.02839590       -4.23079186
 C            0.61258875        1.30875479       -3.86639423
 C           -0.67789766        1.95812335       -3.67603247
 C           -0.35039436       -2.13959417       -4.24902550
 C           -1.35898641       -2.84543694       -3.48164662
 C           -2.52573756       -2.11828701       -3.01601254
 C           -0.55737885       -0.73701013       -4.56506919
 C           -3.52357354        0.08998479       -2.73484004
 C           -2.95143913        1.40527237       -2.97463317
 C           -1.85197363        1.25398855       -3.90906151
 C           -2.81152296       -0.86953917       -3.55342288
 C           -1.79110685       -0.14513201       -4.30459220
