   70
C70 / DATE: 7/ 1/2024 / Origin: Program Fullerene / C70 from database
 C            1.62637317        0.08847352        4.54302796
 C            0.83034766       -1.12254366        4.48365339
 C            1.42155531       -2.00443823        3.49322070
 C            2.67377920       -0.02207620        3.54412727
 C            2.58347018       -1.32762343        2.93012381
 C            2.58499414        1.13079248        2.68169721
 C            0.76825686        1.19664060        4.16000522
 C            1.38445976        1.86908221        3.03270273
 C           -0.55421864       -0.73345579        4.31843053
 C           -0.57859311        0.68564684        3.99667257
 C           -1.38626016       -1.58105968        3.60901690
 C            0.58624933       -2.73071979        2.64410005
 C           -0.80016655       -2.65088886        2.80645926
 C            1.10335467       -3.17266683        1.42810913
 C            2.82601765       -1.44513493        1.56440458
 C            2.32597592       -2.56769731        0.92550637
 C            2.85967906        0.97502645        1.33425757
 C            3.10010422       -0.30065454        0.80229122
 C            2.39757281        1.96411163        0.48172208
 C            0.56893139        2.32301269        1.99720939
 C            1.14054366        2.51808961        0.73380711
 C           -1.32351534        1.12235541        2.90283935
 C           -0.81275854        2.14484422        2.09927772
 C           -2.45765542       -1.00213419        2.82218214
 C           -2.37639352        0.33280044        2.42862442
 C           -1.67247066       -2.85143907        1.65640756
 C           -2.83592536       -2.00102178        1.84371035
 C            0.21428127       -3.37348617        0.29303514
 C           -1.11026519       -2.98153036        0.38905657
 C            2.27488352       -2.59883948       -0.51936146
 C            0.95761181       -3.07628704       -0.91258931
 C            3.28396411       -0.41317261       -0.58518335
 C            2.84774555       -1.57069081       -1.25463519
 C            2.92517582        1.99565247       -0.79455462
 C            3.50726434        0.76826095       -1.30123666
 C            2.15637608        2.59563889       -1.86350811
 C            0.33541655        2.94504888       -0.32874841
 C            0.81954111        2.90591458       -1.64059529
 C           -1.62710360        2.69538990        1.12265206
 C           -1.01670020        3.18904500       -0.09860067
 C           -3.11784117        0.75653275        1.32203429
 C           -2.85238768        2.00524280        0.76155880
 C           -3.54233583       -1.58792959        0.72992985
 C           -3.86961051       -0.17899986        0.60869066
 C           -1.74706239       -2.40868002       -0.71529025
 C           -3.07377406       -2.00856992       -0.57661650
 C            0.32049550       -2.46363383       -1.98675170
 C           -0.99527313       -2.00362261       -1.83319346
 C            2.48627130       -1.51039787       -2.59911820
 C            1.13583745       -1.90576078       -2.96851245
 C            3.38360644        0.79446134       -2.74580718
 C            2.53856635        1.92667766       -3.09697189
 C            2.86222296       -0.37381517       -3.41067699
 C            0.60649973       -0.88385503       -3.84733980
 C            1.49711248        1.45334772       -3.99094628
 C            1.69361238        0.02599859       -4.17793064
 C           -0.07389301        2.83163349       -2.70988673
 C            0.20444535        1.92551637       -3.81290597
 C           -1.97424247        3.01226198       -1.17590338
 C           -3.09615456        2.24646164       -0.65473268
 C           -1.50474255        2.76462320       -2.45764089
 C           -4.16705074        0.04990340       -0.79373185
 C           -3.64937972       -1.09272280       -1.53566256
 C           -3.67546288        1.25392894       -1.43519874
 C           -1.51470811       -1.06583383       -2.74329520
 C           -0.65270430       -0.36661003       -3.58671287
 C           -0.89787417        0.98155802       -3.84883324
 C           -2.03113991        1.63811925       -3.21847961
 C           -2.81077999       -0.58295567       -2.59428186
 C           -3.03415166        0.84885388       -2.67510997
