   70
C70 / DATE: 7/ 1/2024 / Origin: Program Fullerene / C70 from database
 C            1.49404267        0.05411833        4.50284128
 C            0.70234836       -1.14196382        4.29210303
 C            1.48617229       -2.06070271        3.49538862
 C            2.67086100       -0.04353775        3.65516483
 C            2.65839598       -1.33867739        3.02127203
 C            2.69952337        1.12057785        2.80753808
 C            0.71106086        1.18723335        4.04124192
 C            1.52818689        1.92945398        3.11572871
 C           -0.58705512       -0.74011044        3.77772875
 C           -0.56088489        0.69805691        3.56341692
 C           -1.17446847       -1.52696963        2.80135594
 C            0.82611977       -2.88778447        2.59237874
 C           -0.55032988       -2.71613939        2.39466701
 C            1.59301037       -3.43874947        1.56690856
 C            2.99507720       -1.44830619        1.67469106
 C            2.74242718       -2.68557088        1.09271983
 C            3.06372338        0.98631797        1.46957608
 C            3.03973743       -0.28921488        0.86836896
 C            2.86036403        2.11365754        0.67996310
 C            0.91673314        2.58479086        2.05704623
 C            1.77240778        3.00336476        1.05348597
 C           -1.06445960        1.20133182        2.36357938
 C           -0.40589324        2.25464239        1.70965287
 C           -2.11154312       -0.92934476        1.96586674
 C           -1.98514139        0.42782552        1.65553399
 C           -2.92070484       -1.74165782        1.19359540
 C           -1.19748403       -3.52467010        1.46246815
 C           -2.48143519       -3.09871526        0.93174884
 C            0.94751353       -4.04910348        0.41542871
 C           -0.43592107       -4.06806617        0.35044741
 C            2.81273854       -2.83187014       -0.33979479
 C            1.69139745       -3.65450408       -0.76698367
 C            2.95451419       -0.39426236       -0.53701766
 C            2.81634421       -1.63771462       -1.14591293
 C            2.82275035        1.98509064       -0.75865094
 C            2.62863024        0.72662784       -1.30067390
 C            1.21726235        3.55652842       -0.15408245
 C            2.04652799        3.10446935       -1.25863508
 C           -0.94353693        2.74309903        0.50843124
 C           -0.16014539        3.56846587       -0.31653506
 C           -2.57815992        0.95043639        0.50294450
 C           -2.13725135        2.19141237        0.02022267
 C           -3.46211401       -1.22014553       -0.03858891
 C           -3.41760152        0.14425440       -0.28607823
 C           -2.44112697       -3.27319879       -0.51225637
 C           -1.08788613       -3.62294720       -0.87171091
 C           -3.01858616       -2.09549935       -1.10944495
 C            0.99740217       -2.94679518       -1.83189327
 C            1.79856698       -1.79045064       -2.16998996
 C           -0.38748554       -2.82070648       -1.77554791
 C            1.80310442        0.57118948       -2.42034600
 C            1.16825962       -0.64694548       -2.62545744
 C            1.46106276        3.00482819       -2.50955849
 C            1.32147421        1.68250054       -3.10057027
 C           -0.63448605        3.96103576       -1.56390109
 C            0.20688661        3.70616435       -2.72136262
 C           -2.75174786        2.75180972       -1.09883960
 C           -1.99472164        3.65216674       -1.94042562
 C           -3.61897622        0.50011563       -1.61186592
 C           -3.48361957        1.88351784       -1.99110885
 C           -2.38712298       -1.50299756       -2.19516825
 C           -1.00418841       -1.69491380       -2.35102711
 C           -0.20560291       -0.66181023       -2.87617121
 C           -2.95320835       -0.30896562       -2.62198469
 C            0.00172412        1.59629378       -3.70420022
 C           -0.57581703        2.93044959       -3.66236851
 C           -1.96373280        3.08367958       -3.28396318
 C           -2.79885382        1.90430290       -3.27157761
 C           -0.79437512        0.47590108       -3.44101036
 C           -2.18068393        0.59730090       -3.43880149
