   70
C70 / DATE: 7/ 1/2024 / Origin: Program Fullerene / C70 from database
 C            1.27344412       -0.03820660        4.49367978
 C            2.60235658       -0.27883112        3.96671898
 C            2.64043416       -1.64443434        3.47781308
 C            0.45619916       -1.20582874        4.19617676
 C            1.28621628       -2.17227895        3.50852839
 C           -0.75186502       -0.74874596        3.54452355
 C            0.54832526        1.13701493        4.04641993
 C           -0.76165685        0.70259453        3.59755189
 C            1.21337645        2.11223373        3.31708682
 C            3.10532762        0.58264991        2.91041880
 C            2.48991412        1.80261662        2.67759104
 C            3.34430073       -1.64193110        2.20841540
 C            3.44058422       -0.25735008        1.77182704
 C            2.98507387       -2.59632776        1.27383813
 C            0.79949632       -2.79735956        2.36341253
 C            1.73529864       -3.31457224        1.46921441
 C           -1.17216621       -1.37414928        2.37381757
 C           -0.49406292       -2.50643126        1.90722162
 C           -2.03603033       -0.67817764        1.52209242
 C           -1.39890570        1.38484869        2.56855125
 C           -2.29265411        0.67205084        1.77776589
 C            0.45285820        2.92435296        2.38279110
 C           -0.86165569        2.57884223        2.07172098
 C            2.40619478        2.28576683        1.31352444
 C            1.35234372        3.27922944        1.30227284
 C            2.99947695        0.09649472        0.49077185
 C            2.50032796        1.37999932        0.25591926
 C            3.01381824       -2.23177459       -0.12511781
 C            2.85560457       -0.89233281       -0.48386165
 C            1.30603783       -3.78960321        0.16456143
 C            2.23730154       -3.24388002       -0.81449067
 C           -0.97935304       -3.16061237        0.77792606
 C           -0.05111534       -3.82306533       -0.12370289
 C           -2.44047963       -1.24899765        0.31130262
 C           -2.00155815       -2.51852589       -0.02954206
 C           -3.02697367       -0.45078238       -0.66937849
 C           -3.12627427        1.38615543        0.93181073
 C           -3.61680641        0.74520579       -0.27074652
 C           -1.45625397        3.16505784        0.94997016
 C           -2.72832173        2.73528105        0.57681800
 C            0.80019554        3.63269389        0.08706143
 C           -0.64058832        3.78984888        0.00160927
 C            1.85550642        1.66994767       -0.95047666
 C            1.20917200        2.89618966       -1.09723492
 C            2.25930092       -0.58593918       -1.70940911
 C            1.63107167        0.65474264       -1.88497604
 C            1.79381947       -2.95920250       -2.09384051
 C            2.03192637       -1.62505703       -2.61041189
 C           -0.49972270       -3.58612866       -1.48649241
 C           -1.72889744       -2.80495938       -1.42462608
 C            0.43837925       -3.31845079       -2.47567343
 C           -2.77277206       -0.71473352       -2.02634044
 C           -1.98480252       -1.81764100       -2.37546207
 C           -2.95016188        0.28626864       -2.98472072
 C           -3.88103447        1.79171409       -1.23639130
 C           -3.21582073        2.99741108       -0.76750923
 C           -3.49418100        1.57696271       -2.60932816
 C           -0.97060834        3.70533539       -1.41124429
 C            0.14095931        3.02721122       -2.06931497
 C           -2.27294088        3.41229578       -1.78862065
 C           -2.49408250        2.57834062       -2.95481938
 C            0.74801381        0.87370161       -2.95921074
 C           -1.86419619        0.55750716       -3.90391426
 C           -0.11008965        1.97629453       -2.94148799
 C           -1.36729733        1.87062315       -3.53814329
 C            1.11108606       -1.43707043       -3.70515600
 C            0.07017688       -2.45017629       -3.57592082
 C           -1.19715264       -1.74596386       -3.52677786
 C            0.44996258       -0.15997828       -3.84357244
 C           -0.94339989       -0.44798376       -4.12280969
