   70
C70 / DATE: 7/ 1/2024 / Origin: Program Fullerene / C70 from database
 C            1.47918820       -0.00018100        4.53881363
 C            0.69323418       -1.16112480        4.16355018
 C            1.46792614       -1.94418344        3.22922202
 C            2.66282143        0.02101026        3.69712888
 C            2.68024365       -1.19659877        2.92230396
 C            2.68025324        1.27555615        2.98428145
 C            0.69488025        1.18215117        4.22809221
 C            1.48755179        2.02419921        3.36105146
 C           -0.60565901       -0.70027513        3.73728185
 C           -0.60077162        0.75252667        3.74889998
 C           -1.21548524       -1.32645022        2.66396757
 C            0.81308948       -2.58935037        2.18280236
 C           -0.54684219       -2.33384171        1.95153344
 C            1.60229844       -3.02087001        1.12475630
 C            3.10449642       -1.15418615        1.59852826
 C            2.81202848       -2.27287810        0.82286786
 C            3.07691377        1.29314465        1.64993063
 C            3.31917880        0.08606786        0.97069593
 C            2.77654482        2.44304626        0.92205565
 C            0.84142393        2.76175717        2.37532966
 C            1.62766396        3.23388871        1.33003730
 C           -1.16410997        1.42291247        2.66392432
 C           -0.53092382        2.56601355        2.16022909
 C           -2.23494718       -0.63563468        2.02755189
 C           -2.09969855        0.74596645        1.87085059
 C           -3.05313564       -1.35215859        1.17266084
 C           -1.16715097       -2.85344135        0.80763580
 C           -2.52505946       -2.59155095        0.63515929
 C            0.98246999       -3.39523065       -0.13080773
 C           -0.38665563       -3.21762590       -0.29891399
 C            2.96865966       -2.23219557       -0.61776905
 C            1.89184230       -3.01727442       -1.20043958
 C            3.60883735        0.12181087       -0.39545755
 C            3.36972863       -1.05054864       -1.22126986
 C            2.81355377        2.42807298       -0.52946670
 C            3.23356597        1.28474228       -1.18180438
 C            0.99892484        3.76323181        0.13601567
 C            1.63068451        3.12380456       -1.00956650
 C           -1.17043283        3.29196780        1.15919311
 C           -0.37405674        3.94605110        0.13025614
 C           -2.65122090        1.38208971        0.75376619
 C           -2.33725493        2.71451988        0.51345110
 C           -3.72246801       -0.65825676        0.09316121
 C           -3.29817624        0.62792749       -0.23500965
 C           -3.13709875       -2.80074327       -0.65915604
 C           -3.96611614       -1.63908013       -0.94816621
 C           -0.90480694       -3.13828154       -1.59906296
 C           -2.27649297       -3.02652288       -1.79859795
 C            1.36602114       -2.65858264       -2.43188645
 C           -0.05786908       -2.82222610       -2.66140922
 C            2.72523563       -0.60805468       -2.44982330
 C            2.47436262        0.81482765       -2.32599233
 C            1.76610656       -1.40430869       -3.05457565
 C            0.83573814        2.55126999       -2.00425626
 C            1.19297863        1.31829673       -2.55603569
 C           -1.07793411        3.80437259       -1.12933406
 C           -2.36420910        3.19376112       -0.84909089
 C           -0.44892585        3.04281955       -2.19584214
 C           -3.25684999        1.03854318       -1.58042536
 C           -2.62984672        2.23583770       -1.89801522
 C           -1.46117701        2.17891788       -2.76543280
 C           -3.73228460       -1.26007559       -2.32139830
 C           -2.75630088       -2.18124339       -2.87916500
 C           -3.27062144        0.08355492       -2.59186129
 C           -0.46165944       -1.79790411       -3.61070170
 C            0.56785801       -0.77755698       -3.58676481
 C            0.23624556        0.52326758       -3.20537921
 C           -1.09607700        0.94643013       -3.29967223
 C           -1.78915135       -1.40648080       -3.64074059
 C           -2.11107999        0.00055994       -3.46369517
