   70
C70 / DATE: 7/ 1/2024 / Origin: Program Fullerene / C70 from database
 C            1.31579891        0.02162245        4.40636804
 C            2.57234430       -0.19115688        3.72706471
 C            2.54420714       -1.52850336        3.15422730
 C            0.48192224       -1.15076202        4.18124854
 C            1.18609759       -2.01776458        3.25428737
 C           -0.84669782       -0.67913274        3.82127854
 C            0.52321836        1.17948301        4.04923060
 C           -0.86419798        0.75045083        4.06474324
 C            0.95153529        2.04304750        3.03808788
 C            2.94786809        0.71827002        2.66290886
 C            2.04680825        1.69682198        2.23365941
 C            3.15182544       -1.44776050        1.84037770
 C            3.63738883       -0.08868913        1.67524018
 C            2.52917686       -2.06565801        0.75965952
 C            0.53437637       -2.41945087        2.09540999
 C            1.26932465       -2.65850742        0.93001637
 C           -1.44570102       -1.17745700        2.66764381
 C           -0.84491440       -2.25069183        2.00782122
 C           -2.40879392       -0.41140445        2.00027579
 C           -1.79818257        1.52878739        3.40179786
 C           -2.63760214        0.90852234        2.38719582
 C            0.04856726        2.99886096        2.58704087
 C           -1.36380219        2.81142979        2.87921362
 C            0.15265054        3.50142146        1.23146579
 C            2.15523259        2.19598544        0.92707995
 C            1.20281770        3.08678184        0.42168820
 C            3.76547038        0.41117503        0.39168801
 C            3.12724532        1.67521936        0.07121842
 C            2.96101300       -1.73079570       -0.52341386
 C            3.53862618       -0.48001229       -0.73551632
 C            2.40388192       -2.38666841       -1.61305787
 C            0.62804075       -3.24055568       -0.16648178
 C            1.28835717       -3.28435926       -1.39033166
 C           -1.52118802       -2.85551256        0.96112878
 C           -0.75151513       -3.44763260       -0.11867210
 C           -2.87422617       -0.83434313        0.75308090
 C           -2.64163992       -2.15194456        0.36972212
 C           -3.21292336        0.12104618       -0.21069284
 C           -2.89522914        1.89695380        1.35549941
 C           -2.11447065        3.07512282        1.66564880
 C           -1.18874915        3.55934112        0.66519412
 C           -2.95055796        1.46790184        0.03692877
 C           -1.36797775        3.16854937       -0.65702354
 C           -2.38311511        2.25743546       -0.97181353
 C            1.05791600        3.23810798       -0.95790178
 C           -0.28199768        3.29918932       -1.51722879
 C            2.90281338        1.68883115       -1.36339295
 C            3.06783117        0.32923996       -1.84846746
 C            1.88106625        2.46542268       -1.87273731
 C            2.10121024       -1.61354281       -2.80704696
 C            2.14082377       -0.22570518       -2.72887848
 C            0.52168139       -3.33258233       -2.62440247
 C            1.00381571       -2.26290110       -3.48556280
 C           -1.55356796       -3.35203365       -1.33133996
 C           -2.71748101       -2.53139086       -1.03128123
 C           -0.92470914       -3.23662314       -2.56362037
 C           -3.53449185       -0.27486283       -1.50467650
 C           -3.17341282       -1.60606224       -1.95986647
 C           -2.55227792        1.87383815       -2.30006847
 C           -3.27615820        0.64819380       -2.59171182
 C           -0.26837618        2.58923081       -2.78576845
 C            1.00814137        1.90469386       -2.88895743
 C            1.03805903        0.53436767       -3.15105764
 C           -1.41346044        1.93375223       -3.20155108
 C           -0.13335885       -1.46339334       -3.87764699
 C           -1.33278712       -2.18812258       -3.48512815
 C           -2.49992184       -1.47341669       -3.24437551
 C           -2.53946214       -0.07031026       -3.61826619
 C           -0.08946331       -0.08009721       -3.71941675
 C           -1.28474261        0.63070959       -3.82778501
