   70
C70 / DATE: 7/ 1/2024 / Origin: Program Fullerene / C70 from database
 C            1.44434286       -0.02934016        5.10060632
 C            0.68479014       -1.25750831        4.97712767
 C            1.59679157       -2.26721584        4.48326320
 C            2.65812373       -0.18876615        4.31264270
 C            2.76121997       -1.57928737        3.93956364
 C            2.62418393        0.80344474        3.25958074
 C            0.66405411        1.03364923        4.49182488
 C            1.51066469        1.69135106        3.52998889
 C           -0.52074750       -0.96073231        4.21531822
 C           -0.57587660        0.47619500        4.00218617
 C           -0.91944371       -1.80145364        3.17692301
 C            1.12026595       -3.17365901        3.46349914
 C           -0.20127915       -2.96680148        2.89554875
 C            2.84898676       -1.91660784        2.52907347
 C            2.06034430       -3.11461523        2.35603494
 C            2.84594036        0.43528458        1.92888409
 C            2.75959172       -0.91401250        1.55787436
 C            2.56868569        1.40202207        0.96337462
 C            0.91919611        2.26842410        2.42293716
 C            1.75216517        2.47249464        1.34283839
 C           -1.07020580        0.94444902        2.78760598
 C           -0.42804095        2.00557148        2.13866611
 C           -1.74903025       -1.28711979        2.18107132
 C           -1.87362777        0.10041971        2.03532598
 C           -2.05555961       -2.10380603        1.09403050
 C           -0.10498663       -3.39866139        1.51357301
 C            1.28857845       -3.24593946        1.14129479
 C           -1.05670269       -2.94120403        0.61159166
 C            2.31475900       -1.24757567        0.26682449
 C            1.56719026       -2.41456435        0.06784634
 C            2.62896086        1.04461389       -0.38356982
 C            2.32462251       -0.26990311       -0.73961507
 C            2.53102460        2.05617738       -1.33160398
 C            1.28475637        3.33336252        0.37424869
 C            1.91857438        3.30223411       -0.92137265
 C           -0.93162257        2.45297414        0.90381049
 C           -0.15287794        3.35201659        0.17092018
 C           -2.49410573        0.60551694        0.89859464
 C           -1.91590981        1.70242907        0.24142540
 C           -3.01762037       -1.66002412        0.19762843
 C           -3.34799368       -0.24884197        0.21453856
 C           -2.88955733       -2.03745084       -1.19965430
 C           -0.66677932       -2.78021655       -0.71649370
 C            0.66405173       -2.43706329       -0.98029974
 C           -1.64988701       -2.47962853       -1.66092284
 C            1.71373361       -0.53939319       -1.97887914
 C            0.96178176       -1.71227812       -2.11834234
 C            2.03900626        1.75196156       -2.66092895
 C            1.69611162        0.44205555       -2.98417423
 C            0.90761663        3.64618191       -1.89641997
 C           -0.38768369        3.52748903       -1.24893325
 C            1.15501666        2.84039054       -3.07117666
 C           -2.20731792        1.95867204       -1.11354118
 C           -1.36896066        2.77529378       -1.87777558
 C           -3.81537947        0.10950125       -1.10442695
 C           -3.63364008       -1.05181837       -1.96285246
 C           -3.20746572        1.24025724       -1.76495312
 C           -3.09259347       -0.58962158       -3.22461464
 C           -3.01928538        0.86562981       -3.15536360
 C           -1.25821696       -2.20418084       -2.97158688
 C            0.13852261       -1.89994315       -3.21657487
 C           -2.05155147       -1.30702142       -3.80074693
 C            0.96867753        0.23553376       -4.15787600
 C            0.21620548       -0.98643947       -4.32858504
 C           -1.14375562       -0.63272866       -4.71068118
 C            0.06655333        2.52975112       -3.86835357
 C           -1.25722726        2.56199091       -3.25653420
 C           -2.07133852        1.54798476       -3.90635966
 C            0.14110252        1.31898199       -4.65723961
 C           -1.20992259        0.81111822       -4.81763485
