   70
C70 / DATE: 7/ 1/2024 / Origin: Program Fullerene / C70 from database
 C            1.57394067        0.09686567        4.66573921
 C            0.76400346       -1.10494593        4.65019640
 C            1.35912489       -2.04162163        3.71310386
 C            2.62680179       -0.06692621        3.67899691
 C            2.47972431       -1.36865913        3.06836371
 C            2.59785704        1.08867490        2.81593922
 C            0.73115672        1.19607509        4.22656333
 C            1.42183598        1.86821903        3.15004430
 C           -0.61164772       -0.70543208        4.43364462
 C           -0.58993312        0.66987343        3.95787679
 C           -1.44527309       -1.60515195        3.79601546
 C            0.51404207       -2.83666144        2.94089305
 C           -0.85934813       -2.79806056        3.19736904
 C            0.98041041       -3.29672279        1.70772068
 C            2.63321383       -1.48898318        1.69004588
 C            2.10211662       -2.61730101        1.07813657
 C            2.87653380        0.92849440        1.46613787
 C            2.92546054       -0.36005785        0.90952661
 C            2.54163219        1.98953151        0.63040029
 C            0.68507181        2.37066635        2.08658752
 C            1.39770059        2.73048066        0.94715245
 C           -1.20008343        0.98722831        2.74275451
 C           -0.65962814        1.99724580        1.93790396
 C           -2.40427366       -1.09631294        2.83650827
 C           -2.15723632        0.12321662        2.20758765
 C           -1.79937258       -3.26378594        2.19329329
 C           -2.80872976       -2.22727355        2.03270940
 C            0.05175741       -3.68795561        0.65492757
 C           -1.31242447       -3.61566931        0.87354690
 C            1.88495214       -2.62262872       -0.35659179
 C            0.59122694       -3.22653446       -0.61182150
 C            2.96588141       -0.48139979       -0.48529847
 C            2.25625915       -1.51578225       -1.10557505
 C            3.01093864        1.94662640       -0.67475363
 C            3.31506471        0.64311309       -1.23053165
 C            2.36959872        2.73973568       -1.70779705
 C            0.71620018        3.42689632       -0.03917015
 C            1.20419411        3.42507518       -1.40693271
 C           -1.33864290        2.37969726        0.77617003
 C           -0.72753141        3.30359713       -0.07351297
 C           -2.63455770        0.34749186        0.91228885
 C           -2.38357428        1.57997799        0.29951991
 C           -3.00400707       -2.01836224        0.61855759
 C           -2.15011721       -2.93910851       -0.10043257
 C           -3.08776656       -0.72527559        0.12777562
 C           -0.24041750       -2.63501300       -1.55823165
 C           -1.61183969       -2.49370391       -1.30479672
 C            1.60783415       -1.28736834       -2.32353289
 C            0.34768387       -1.85279520       -2.55551638
 C            3.00636157        0.68376496       -2.64694696
 C            2.45153505        1.99559682       -2.94825082
 C            2.09925352       -0.30987118       -3.18137321
 C            1.24700134        1.79379443       -3.73314512
 C            1.18842944        0.38018049       -4.07445334
 C            0.05007263        3.32301966       -2.29001373
 C           -1.14400680        3.41389062       -1.45850192
 C            0.07189539        2.46598424       -3.39462470
 C           -2.92960592        1.82118307       -0.96385974
 C           -2.30368917        2.77850424       -1.86189039
 C           -3.06871884       -0.58321338       -1.25360296
 C           -2.31601524       -1.50678252       -1.99715588
 C           -3.33873276        0.68073248       -1.75876800
 C           -0.46913888       -1.34538163       -3.56554399
 C           -0.04357715       -0.19204697       -4.34409802
 C           -1.88144769       -1.19351671       -3.28035764
 C           -1.13137694        2.02051350       -3.93749572
 C           -2.36875932        2.24122805       -3.20874084
 C           -3.08448018        0.97806909       -3.15259882
 C           -1.19193884        0.68328976       -4.50247102
 C           -2.34887463        0.01177140       -3.93560934
