   70
C70 / DATE: 7/ 1/2024 / Origin: Program Fullerene / C70 from database
 C            1.15293632       -0.08526127        4.92542251
 C            2.37445998       -0.31683549        4.17832726
 C            2.23708013       -1.60153790        3.51028677
 C            0.30410999       -1.25205771        4.73866598
 C            0.85781455       -2.01712551        3.63964219
 C           -1.05832040       -0.78886412        4.63616798
 C            0.35057853        1.08904977        4.62961188
 C           -1.03746641        0.66869299        4.61874850
 C            0.78545993        2.00299148        3.67612194
 C            2.79180717        0.65136934        3.17851989
 C            2.06865968        1.82178982        3.00647154
 C            2.77828084       -1.46032873        2.17793723
 C            3.21796916       -0.09067490        2.00633613
 C            2.11108861       -2.04288342        1.11275123
 C            0.11000289       -2.20959300        2.47575733
 C            0.77656452       -2.44568573        1.26964284
 C           -1.84951433       -1.20893105        3.49787700
 C           -1.26489816       -1.94186862        2.45996635
 C           -1.90338861        1.09502941        3.52933309
 C           -2.67832720       -0.07178958        3.15595057
 C           -0.15562069        2.52312386        2.69391684
 C           -1.39661424        1.91735247        2.52208033
 C            1.95149059        2.38672760        1.67437550
 C            0.60925743        2.91360356        1.52846498
 C            3.08515348        0.46556950        0.73506905
 C            2.52277715        1.74132288        0.57889570
 C            2.55023204       -1.69990064       -0.15930869
 C            3.06402471       -0.41176182       -0.35228489
 C            2.03093746       -2.41697812       -1.22661197
 C            0.03894521       -2.79786642        0.13695715
 C            0.72697104       -3.02647953       -1.05634970
 C           -1.96051509       -2.02334477        1.25024868
 C           -1.33904615       -2.56171659        0.11910002
 C           -3.29189024       -0.07979585        1.92065186
 C           -3.11456210       -1.25243273        1.09120052
 C           -1.97439856        1.87323904        1.24780758
 C           -3.08082970        1.05373070        1.03904182
 C            0.02796510        2.84054721        0.27486111
 C           -1.28402484        2.37765275        0.13938390
 C            2.10989262        2.14044925       -0.69731411
 C            0.87392439        2.78741618       -0.82785094
 C            3.12474014        0.13352189       -1.62887779
 C            2.67311444        1.49883489       -1.79723037
 C            2.11621294       -1.88876528       -2.57505610
 C            2.67327658       -0.63477867       -2.77602762
 C            0.03661228       -2.96028468       -2.33223596
 C            0.90044322       -2.26745902       -3.27790217
 C           -2.03924702       -2.58106550       -1.09074644
 C           -1.32946385       -2.73606523       -2.35035172
 C           -3.52880885       -0.85597321       -0.23803076
 C           -3.38156832        0.59101312       -0.30581810
 C           -3.10325843       -1.61608841       -1.30979296
 C           -1.80133222        2.19087151       -1.14792856
 C           -2.70605708        1.14993530       -1.38429425
 C            0.30934773        2.98370965       -2.08181995
 C           -1.11737583        2.75858687       -2.22046527
 C            2.05497654        1.61159007       -3.10660815
 C            2.06261896        0.28778978       -3.71954429
 C            0.96136392        2.45080345       -3.26356598
 C            0.35043875       -1.40948677       -4.22514987
 C            0.99066508       -0.13212847       -4.50201014
 C           -1.89726250       -1.79036333       -3.30106569
 C           -2.82459560       -0.94822394       -2.56593877
 C           -2.65581412        0.43541982       -2.58665488
 C           -1.09021989       -1.20861759       -4.27132089
 C           -1.35963233        2.26205862       -3.56076101
 C           -0.07348660        2.11627901       -4.22561367
 C           -0.04734465        0.81532641       -4.86731138
 C           -2.08482712        1.01859851       -3.71243981
 C           -1.33248298        0.17901688       -4.63131037
