   70
C70 / DATE: 7/ 1/2024 / Origin: Program Fullerene / C70 from database
 C            1.55902607       -0.04791828        4.58711993
 C            0.71786002       -1.20043302        4.31736911
 C            1.35642623       -1.98884553        3.27885397
 C            2.63342963       -0.04653962        3.60985234
 C            2.54030301       -1.26746519        2.84819888
 C            2.58650939        1.20495653        2.88886514
 C            0.76063071        1.14227922        4.36095930
 C            1.47355641        1.98178958        3.41874789
 C           -0.63188992       -0.72579605        4.08994221
 C           -0.58201692        0.72641666        4.01140756
 C           -1.42100948       -1.41571386        3.18443604
 C            0.56593197       -2.59499736        2.30078405
 C           -0.82326158       -2.47110006        2.37681015
 C            1.14861601       -2.89861617        1.06581092
 C            2.80255981       -1.23515700        1.49020564
 C            2.39124924       -2.33358903        0.75561866
 C            2.80249450        1.20642841        1.51041549
 C            2.93394678       -0.00910556        0.81899832
 C            2.42022690        2.34716484        0.80695501
 C            0.73665760        2.75038142        2.52595850
 C            1.40010237        3.20024138        1.38958802
 C           -1.20808647        1.37846691        2.95321723
 C           -0.65011732        2.56630645        2.46634032
 C           -2.31792383       -0.67036741        2.32038148
 C           -2.17137551        0.70583838        2.19213965
 C           -1.61704136       -2.58386034        1.16378904
 C           -2.53384478       -1.45931349        1.12310398
 C            0.33677379       -3.37336016        0.03201712
 C           -0.99998393       -2.97592290       -0.01238155
 C            0.94031623       -3.85557929       -1.12569610
 C            2.88310567       -2.44081955       -0.53288229
 C            2.28058898       -3.40191922       -1.43026316
 C            2.87968257       -0.00830991       -0.58213271
 C            3.08298847       -1.20361095       -1.26284857
 C            2.15816133        2.26140901       -0.61986937
 C            2.21226779        1.02446622       -1.23404456
 C            0.64183199        3.79662555        0.30821030
 C            1.06961506        3.16420756       -0.93463442
 C           -1.39436286        3.32526909        1.56923880
 C           -0.70563903        4.04681849        0.50868095
 C           -2.71483740        1.33499319        1.07383827
 C           -2.56906114        2.71728653        0.97731067
 C           -2.73594217       -0.79733786       -0.08223708
 C           -3.02910480        0.56740794       -0.06073618
 C           -1.56130826       -2.57995120       -1.22625981
 C           -2.34481584       -1.41315071       -1.28120509
 C            0.19051251       -3.84584521       -2.36893644
 C           -1.09240742       -3.16840152       -2.39773249
 C            2.25278178       -2.79997017       -2.74952287
 C            2.48593437       -1.37383851       -2.57533084
 C            1.03393120       -3.23982152       -3.39262936
 C            1.35636539        0.73888043       -2.30290999
 C            1.53449874       -0.45143774       -3.01507893
 C            0.11869373        2.79423914       -1.88358266
 C            0.27144221        1.58889666       -2.59363214
 C           -1.57911435        4.06678242       -0.64776130
 C           -2.81450376        3.39485313       -0.27730667
 C           -1.11145154        3.45645175       -1.87880922
 C           -3.39462824        1.17859300       -1.25264981
 C           -3.23936762        2.61149323       -1.41332386
 C           -2.26231393        2.81709181       -2.47113135
 C           -2.52983967       -0.74517525       -2.50511276
 C           -0.77526619        1.13116219       -3.41196729
 C           -2.94885779        0.58085890       -2.49176701
 C           -2.06625472        1.54816521       -3.12222261
 C           -1.13408818       -2.40879226       -3.62430610
 C            0.23509794       -2.25238921       -4.08413604
 C            0.56983143       -0.84418282       -3.93713587
 C           -1.71605278       -1.09053418       -3.57748525
 C           -0.68817910       -0.13705309       -3.96550320
