   70
C70 / DATE: 7/ 1/2024 / Origin: Program Fullerene / C70 from database
 C            1.61850778        0.04621101        4.82718097
 C            0.83767098       -1.17054733        4.70334933
 C            1.66455841       -2.13534026        4.01503909
 C            2.73481101       -0.05687593        3.90140346
 C            2.80547019       -1.42677331        3.45054768
 C            2.57732188        0.98491435        2.90882462
 C            0.78472476        1.14821905        4.38543143
 C            1.48801500        1.84606671        3.32834346
 C           -0.44953320       -0.82342153        4.12024917
 C           -0.53166978        0.62770210        4.07650551
 C           -0.93887760       -1.56154005        3.03818860
 C            1.06584243       -2.89100083        2.93914427
 C           -0.29349170       -2.75258329        2.67029159
 C            2.81626171       -1.69192221        2.02087597
 C            1.98105521       -2.85113227        1.81168489
 C            2.67939810        0.68426154        1.55389885
 C            2.71699898       -0.64548194        1.11222488
 C            2.25445394        1.65291091        0.65784886
 C            0.72491063        2.44302622        2.33182232
 C            1.29176030        2.58336508        1.06675460
 C           -1.21804477        1.21488356        3.02430485
 C           -0.66250277        2.34459796        2.41714542
 C           -1.82034102       -0.93668864        2.14180644
 C           -2.09568327        0.42531054        2.28646004
 C           -2.26971514       -1.61990393        1.00802104
 C           -0.75072920       -3.44267455        1.55740488
 C           -1.90923493       -2.94887481        0.84460677
 C            1.43444683       -3.07638087        0.55418633
 C            0.23565368       -3.77818679        0.54559848
 C            2.31538531       -0.93750359       -0.19615340
 C            1.68231677       -2.15649550       -0.48068251
 C            2.41820823        1.40794434       -0.69351409
 C            2.29987995        0.08880540       -1.14132944
 C            2.16932258        2.46031881       -1.55558130
 C            0.59834679        3.32053653        0.10166392
 C            1.11361346        3.38524468       -1.19251451
 C           -1.42385992        3.02768128        1.47723364
 C           -0.76875695        3.54090889        0.28279639
 C           -2.93809540        1.05425288        1.37664081
 C           -2.69315092        2.45171016        1.07202981
 C           -2.80111413       -0.90918361       -0.07438338
 C           -3.26402823        0.38245907        0.13185488
 C           -2.56183869       -1.33720070       -1.38526057
 C           -1.83448162       -3.50084137       -0.49389118
 C           -0.46501867       -3.95592183       -0.69817961
 C           -2.16413389       -2.65068665       -1.62005938
 C            1.07109396       -2.34030575       -1.73185135
 C            0.03699418       -3.27229766       -1.86692479
 C           -1.14125634       -2.89681442       -2.61927045
 C            1.89244953       -0.17995851       -2.45141217
 C            1.21535365       -1.37330155       -2.73413305
 C            2.07538156        2.20391507       -2.97512890
 C            1.97443751        0.82934839       -3.41491471
 C            0.18373157        3.39824409       -2.30594700
 C            0.89896784        2.90675252       -3.46634572
 C           -1.67225880        3.34412441       -0.84323556
 C           -2.83666291        2.63363783       -0.36162205
 C           -3.14180683        1.34799163       -0.94748309
 C           -1.12619247        2.99305807       -2.07122687
 C           -2.39831379       -0.39383859       -2.40600286
 C           -2.47828533        0.96757402       -2.10654477
 C           -1.63960238        1.88319772       -2.76179190
 C           -0.98113159       -1.96755485       -3.62426552
 C            0.34941955       -1.44072400       -3.83238718
 C           -1.84526804       -0.80288070       -3.61725413
 C            1.04722558        0.83823754       -4.52782179
 C            0.21056404        2.01693763       -4.37376941
 C           -1.11516315        1.55130593       -4.01159410
 C            0.16479068       -0.28944379       -4.69076207
 C           -1.19910116        0.17862571       -4.46812445
