   70
C70 / DATE: 7/ 1/2024 / Origin: Program Fullerene / C70 from database
 C            1.36596737       -0.02678413        5.17677036
 C            0.57428761       -1.18881737        4.81149416
 C            1.44039656       -2.08025923        4.07849578
 C            2.57890684       -0.05598626        4.37564870
 C            2.67414734       -1.36349349        3.77600303
 C            2.56032513        1.09619553        3.50091402
 C            0.61093269        1.15265323        4.79467950
 C            1.40711317        1.91253465        3.84981918
 C           -0.63867670       -0.71718687        4.16598401
 C           -0.70517575        0.72024298        4.37837428
 C           -1.02362038       -1.24355547        2.92646341
 C            0.95824873       -2.63011539        2.83115111
 C           -0.32369201       -2.32526648        2.36997338
 C            2.88642752       -1.45722044        2.34141461
 C            2.04831082       -2.54040532        1.88335334
 C            2.89376398        0.96527792        2.15390749
 C            2.95614901       -0.30667547        1.55641968
 C            2.63613871        2.06912537        1.35474720
 C            0.76015571        2.60927418        2.82949373
 C            1.49682523        2.91061436        1.68713381
 C           -1.36324332        1.48885107        3.43637467
 C           -0.63280369        2.54672260        2.74268341
 C           -1.91788418       -0.51530310        2.13059489
 C           -2.17163186        0.81698283        2.43949010
 C           -2.27050046       -0.99092784        0.86469287
 C           -0.61664424       -2.70875578        1.06165775
 C           -1.77908268       -2.22784143        0.46185169
 C            1.70375691       -2.58825529        0.54698826
 C            0.45230792       -3.09722204        0.24884191
 C            2.74741383       -0.44128390        0.17459965
 C            2.24323425       -1.65158502       -0.33439683
 C            2.68759465        1.94078833       -0.08339736
 C            2.84035815        0.68351900       -0.64936578
 C            0.82115697        3.24930789        0.44347710
 C            1.69463715        2.84419445       -0.64194050
 C           -1.29461351        2.74776630        1.45973208
 C           -2.35231851        1.75658836        1.35838288
 C           -0.54840368        3.04855131        0.31977838
 C           -2.79291217       -0.10349261       -0.09030920
 C           -2.65751085        1.27166831        0.10317201
 C           -3.11970580       -0.56109517       -1.37354783
 C           -2.14932376       -2.73938686       -0.77623049
 C           -2.84794894       -1.88490871       -1.72036109
 C            0.21136345       -3.43215545       -1.06952629
 C           -1.16124679       -3.49457119       -1.51996356
 C            1.90046996       -1.76066091       -1.68921796
 C            0.98814965       -2.74214025       -2.08574665
 C            2.59437612        0.56426372       -2.01138648
 C            2.17150435       -0.71024476       -2.55489016
 C            1.13870353        2.52871530       -1.87276549
 C            1.81061043        1.60094436       -2.66371196
 C           -1.07764362        2.72637661       -0.93548026
 C           -2.30259833        2.05307658       -0.98071697
 C           -0.23285165        2.70394262       -2.05538721
 C           -3.34268352        0.37582186       -2.38897221
 C           -2.87251742        1.73826869       -2.20036320
 C           -3.06372088        0.00611644       -3.76482372
 C           -2.35360897       -2.20191398       -3.05883696
 C           -1.19253946       -3.04946503       -2.89872535
 C            0.11181150       -2.49909587       -3.22294089
 C           -2.28993037       -1.19190058       -4.00478295
 C            1.27334403       -0.44487952       -3.67326816
 C            1.13337822        1.00131703       -3.79758265
 C            0.17775263       -1.28177432       -3.89496781
 C           -0.97916085       -0.77182996       -4.49223241
 C           -0.77580962        2.44722269       -3.31333004
 C           -2.19055663        2.15226703       -3.40618835
 C           -2.37476528        1.11423280       -4.40317751
 C           -0.07660699        1.53684192       -4.20993466
 C           -1.05808726        0.64618914       -4.79608953
