   70
C70 / DATE: 7/ 1/2024 / Origin: Program Fullerene / C70 from database
 C            1.60140106        0.22370332        4.81866727
 C            0.78445393       -0.96539509        4.66020109
 C            1.42977948       -1.82737843        3.68812363
 C            2.65852198        0.17066337        3.82370109
 C            2.55688384       -1.09273620        3.12921697
 C            2.59217791        1.38405751        3.04152433
 C            0.77006165        1.37199723        4.50784939
 C            1.49285796        2.18895868        3.55394911
 C           -0.57680771       -0.54335728        4.40226837
 C           -0.54768175        0.88641439        4.13459391
 C           -1.36246572       -1.35031515        3.59975174
 C            0.63719280       -2.58455518        2.82665692
 C           -0.75289691       -2.49018052        2.92348692
 C            1.20762174       -3.01844694        1.63346316
 C            2.75367687       -1.13038998        1.75314605
 C            2.33148512       -2.27413089        1.08805404
 C            2.77145143        1.31250718        1.66370401
 C            2.89455549        0.06313047        1.03000623
 C            2.40415727        2.42398341        0.90588951
 C            0.75185947        2.92793987        2.64393330
 C            1.32533493        3.19012504        1.33564809
 C           -1.14436335        1.39102067        2.97577165
 C           -0.64297535        2.56905755        2.42649230
 C           -2.25023258       -0.72167153        2.64241266
 C           -1.98268019        0.57217647        2.20974658
 C           -1.58654185       -2.78779717        1.76784137
 C           -2.58732217       -1.73364890        1.66376453
 C            0.36558816       -3.43113419        0.52126246
 C           -1.01829499       -3.29356080        0.60127299
 C            2.20575616       -2.26283563       -0.35620714
 C            1.05410438       -3.06956289       -0.71102368
 C            2.96015289        0.01743696       -0.36669068
 C            2.43797452       -1.08702893       -1.05039205
 C            2.71081212        2.43761437       -0.44560777
 C            3.17720778        1.20774975       -1.05115319
 C            1.74393060        3.01260487       -1.36512781
 C            0.22346571        3.42246471        0.41527380
 C           -0.97390073        2.91765771        1.05917413
 C            0.42609314        3.16642885       -0.94093508
 C           -2.32050346        0.92740399        0.89813080
 C           -1.80612236        2.09527125        0.32775677
 C           -3.00467089       -1.34082949        0.40097467
 C           -3.02512378        0.02241437        0.09044318
 C           -1.74978457       -3.19344378       -0.57956748
 C           -2.86997929       -2.26928221       -0.62517021
 C            0.30517895       -2.72453421       -1.82914579
 C           -1.04459880       -3.06174487       -1.84240110
 C            1.86216933       -0.93123573       -2.31431595
 C            0.77594578       -1.73051443       -2.69278175
 C            2.87228783        1.28587898       -2.46668994
 C            2.01708681        2.44850514       -2.66640239
 C            2.21706432        0.16008713       -3.09850113
 C            0.90348898        2.02816493       -3.48461407
 C            1.24043606        0.71718974       -4.01258235
 C           -0.61965988        2.61311365       -1.70171582
 C           -1.80455725        2.23160730       -1.05162545
 C           -0.39765473        2.25586612       -3.04492056
 C           -3.41996549        0.42305632       -1.18783787
 C           -2.83263539        1.62450101       -1.75127222
 C           -3.05097808       -1.85315156       -2.00325482
 C           -1.94427706       -2.40788748       -2.77728160
 C           -3.49820977       -0.56315999       -2.25355336
 C            0.01927492       -1.38808320       -3.81673244
 C            0.20692987       -0.09229614       -4.45275418
 C           -1.40348700       -1.68659977       -3.83317692
 C           -1.42203181        1.67792051       -3.79185313
 C           -2.71139442        1.44709771       -3.17865074
 C           -3.12942478        0.09061805       -3.49653748
 C           -1.10652208        0.51066572       -4.60031728
 C           -2.10067709       -0.51016574       -4.32335961
