   70
C70 / DATE: 7/ 1/2024 / Origin: Program Fullerene / C70 from database
 C            1.51629469        0.01423883        4.79234247
 C            0.69407095       -1.17496733        4.71748310
 C            1.26595055       -2.06930978        3.72136089
 C            2.62479217       -0.16610638        3.87709999
 C            2.41501396       -1.40298606        3.14039662
 C            2.74971106        1.05825327        3.11555747
 C            0.71939793        1.12169889        4.29078568
 C            1.47728559        1.75598134        3.23060997
 C           -0.67563686       -0.73980583        4.52344589
 C           -0.60121488        0.60832715        3.98136615
 C           -1.53334016       -1.63659022        3.91336120
 C            0.38541420       -2.75372401        2.89492230
 C           -0.94347847       -2.82008751        3.31630810
 C            0.67941759       -2.86946829        1.52891827
 C            2.57485505       -1.37918891        1.75683929
 C            1.64840904       -2.04239423        0.94196705
 C            3.30993458        0.96098310        1.85450128
 C            3.34007634       -0.34998832        1.21881559
 C            2.86324262        1.88839972        0.83452844
 C            0.82161208        2.13078975        2.06038557
 C            1.59528245        2.44783488        0.94205009
 C           -1.14361076        0.86620468        2.72230590
 C           -0.52430529        1.78906454        1.87677035
 C           -2.45759018       -1.13751160        2.91462570
 C           -2.12140478        0.01325217        2.20542701
 C           -1.94876967       -3.37027519        2.43533905
 C           -2.91206017       -2.30328986        2.18510243
 C           -0.16653023       -3.61539912        0.71328883
 C           -1.52288250       -3.88994632        1.15624139
 C           -0.24033200       -3.30782550       -0.70079438
 C            1.67681105       -1.86073771       -0.45677561
 C            0.68380719       -2.43507322       -1.26370115
 C            3.33446012       -0.13028264       -0.21047412
 C            3.24928207        1.30636540       -0.43057109
 C            2.59703637       -0.97056968       -1.03322070
 C            2.61640331        1.75405311       -1.57938093
 C            0.95371568        2.85679690       -0.22479857
 C            1.62492337        2.72822072       -1.44889580
 C           -1.13277895        2.11455442        0.66939182
 C           -0.43874288        2.93579981       -0.21135005
 C           -2.51356300        0.14917098        0.86875390
 C           -2.15638279        1.30332443        0.17212506
 C           -3.08248560       -2.19859370        0.75355897
 C           -2.41961862       -3.33943283        0.15968533
 C           -1.63848256       -3.10391351       -1.03355203
 C           -2.91981517       -0.96654645        0.13046197
 C           -1.93667090       -1.99490595       -1.80771444
 C           -2.69391492       -0.95992362       -1.24301702
 C            0.34237357       -1.81872897       -2.47169039
 C           -1.01274542       -1.65501876       -2.78402619
 C            2.42141219       -0.55450500       -2.35244970
 C            2.54006234        0.86585799       -2.64555897
 C            1.30584706       -1.06242503       -3.12287139
 C            1.67245957        1.17316473       -3.76778000
 C            0.91081185       -0.03312312       -4.07238006
 C            1.02181229        3.22509998       -2.60084651
 C            1.05541540        2.41881834       -3.81229367
 C           -1.10229261        3.40340730       -1.33593694
 C           -0.30879702        3.78658966       -2.48498848
 C           -2.52361952        1.42715886       -1.17160784
 C           -2.74363402        0.25920714       -1.91639806
 C           -2.23238051        2.63086099       -1.81691181
 C           -1.41097422       -0.69637095       -3.70614353
 C           -0.42182246        0.05898002       -4.44851482
 C           -2.43372597        0.23248568       -3.27539068
 C           -0.22784726        2.55387626       -4.47817185
 C           -1.05482927        3.44428423       -3.68172901
 C           -2.23336698        2.70165308       -3.26718338
 C           -1.00272529        1.35886129       -4.74783055
 C           -2.25502236        1.46539595       -4.01117340
