   70
C70 / DATE: 7/ 1/2024 / Origin: Program Fullerene / C70 from database
 C            1.65450575        0.06374944        4.86105528
 C            0.84310891       -1.12787323        4.67385700
 C            1.44533222       -1.90894881        3.60507666
 C            2.70449813        0.03524071        3.86313929
 C            2.73237327       -1.30112193        3.30371726
 C            2.50751518        1.15133957        2.94823713
 C            0.81605774        1.20899082        4.57498812
 C            1.32796866        1.86791646        3.37995641
 C           -0.53855174       -0.70572303        4.53658099
 C           -0.56142803        0.75223492        4.57076584
 C           -1.34980234       -1.38369563        3.63357931
 C            0.64117703       -2.37138489        2.55820068
 C           -0.74428231       -2.30798119        2.68537342
 C            1.21090273       -2.61263448        1.30180340
 C            3.22281754       -1.43145924        2.02037886
 C            2.56381552       -2.35882724        1.12537821
 C            2.71225503        0.92485757        1.59119501
 C            3.42015730       -0.21800942        1.24376343
 C            1.85602851        1.50743851        0.64278355
 C            0.41604736        2.30763684        2.43043015
 C            0.72655182        2.22423905        1.06648149
 C           -1.45277325        1.43452823        3.75789981
 C           -0.91547746        2.39883287        2.81232005
 C           -2.41102360       -0.67127091        2.93847210
 C           -2.50196444        0.70476703        3.06296699
 C           -1.56803271       -2.31477779        1.49428609
 C           -2.57442314       -1.27534309        1.62444044
 C            0.39890871       -2.73144533        0.16588185
 C           -0.97581725       -2.49625283        0.25940940
 C            0.98142816       -2.83692836       -1.10801943
 C            3.03568460       -2.01390101       -0.19467068
 C            3.45438387       -0.62100783       -0.13670358
 C            2.30316323       -2.40355409       -1.30379613
 C            2.03106453        1.21639532       -0.72346076
 C            2.96180800        0.23690893       -1.10660161
 C            1.13558803        1.74302992       -1.67087343
 C           -0.20548083        2.67592448        0.12249131
 C            0.09594125        2.58444945       -1.24380932
 C           -1.91524360        2.58827014        1.79752934
 C           -2.86092453        1.48971229        1.89810936
 C           -1.52343709        2.95879266        0.52613581
 C           -2.87265038       -0.47656668        0.51452137
 C           -3.24087264        0.86064547        0.71357373
 C           -1.66409743       -2.05347115       -0.86007133
 C           -2.46527405       -0.91274235       -0.75819016
 C            0.12892239       -2.98009087       -2.20960921
 C           -1.23530332       -2.49456131       -2.09854617
 C            0.59928181       -2.65706263       -3.54571423
 C            2.62640693       -1.73224984       -2.47798870
 C            2.88729780       -0.30577444       -2.37933321
 C            1.86229956       -1.97212157       -3.67879930
 C            1.24527284        1.37856507       -3.02750153
 C            2.10272674        0.35117339       -3.39144212
 C            1.61461297       -0.68075622       -4.29743305
 C            0.21194606        1.66407990       -3.91262909
 C           -0.81796412        3.09406294       -2.17022888
 C           -0.81888143        2.59400472       -3.52455408
 C           -2.53039637        2.88477301       -0.41924668
 C           -3.36395995        1.69204977       -0.39473451
 C           -2.20804442        3.17559669       -1.78882971
 C           -2.70881516       -0.12260629       -1.88970773
 C           -2.09813981        1.92530978       -3.73997636
 C           -3.30553082        1.12286881       -1.72275115
 C           -2.93283886        2.21510225       -2.60122343
 C           -1.53692218       -1.70678419       -3.27681211
 C           -0.41657941       -1.84481181       -4.19603409
 C            0.22302664       -0.64260414       -4.70820672
 C           -0.45479821        0.55964731       -4.58453855
 C           -2.13535992       -0.46047544       -3.12489653
 C           -1.79578599        0.54168493       -4.03784560
