   70
C70 / DATE: 7/ 1/2024 / Origin: Program Fullerene / C70 from database
 C            1.52021947       -0.21699227        4.87298758
 C            0.65533647       -1.38313066        4.89369956
 C            1.19465951       -2.35121836        3.95744099
 C            2.58115008       -0.46617783        3.91356573
 C            2.38459095       -1.78493888        3.34890511
 C            2.62600579        0.65835069        3.00282095
 C            0.74384424        0.90408815        4.37431268
 C            1.48923224        1.51637234        3.28861732
 C           -0.64707948       -0.98159664        4.39312027
 C           -0.59844354        0.43588032        4.09132420
 C            0.11710647       -2.76552970        3.07606680
 C           -1.01735492       -1.89149206        3.32222465
 C            0.43084623       -3.05760323        1.75611180
 C            2.54216885       -1.94564806        1.97727785
 C            1.75473041       -2.89664688        1.33848317
 C            2.92539986        0.42200572        1.67004372
 C            3.06363502       -0.89559683        1.21401795
 C            2.58430028        1.40776215        0.75369124
 C            0.77744693        2.03579013        2.20822026
 C            1.42847057        2.16226218        0.97886166
 C           -1.19632513        0.86726932        2.91619884
 C           -0.61318663        1.91840136        2.21052723
 C           -1.70020809       -1.37448321        2.22326275
 C           -2.01488064       -0.01525136        2.21383307
 C           -0.58492328       -2.96909649        0.80586852
 C           -1.61655000       -2.04524053        1.00164633
 C           -0.33447923       -3.46097495       -0.46745252
 C            2.09069913       -3.24564461        0.03949681
 C            1.04161252       -3.73376689       -0.83550078
 C            3.30154316       -1.11107025       -0.14971945
 C            2.91880780       -2.32808852       -0.72602419
 C            3.10347854        1.30116807       -0.52382216
 C            3.54356826       -0.00867321       -0.97022014
 C            2.42226878        1.94964181       -1.62498826
 C            0.71492371        2.69777661       -0.09806057
 C            1.18353342        2.53574079       -1.40583047
 C           -1.32511746        2.43297256        1.13357627
 C           -0.62006900        3.05403134        0.10216990
 C           -2.72277671        0.49640581        1.13282241
 C           -2.55836049        1.85068059        0.84682441
 C           -2.31274068       -1.52222119       -0.09265210
 C           -3.07885189       -0.36993393        0.09825405
 C           -0.97845724       -2.83940746       -1.60588948
 C           -1.94369151       -1.87141408       -1.39564998
 C            1.27048915       -3.19024719       -2.16247668
 C            2.46991129       -2.38026967       -2.11404406
 C            0.03344125       -2.58068424       -2.61473860
 C            3.27550899       -0.10057884       -2.39363691
 C            2.58263944        1.11022760       -2.79681622
 C            2.52260556       -1.23379718       -2.88959528
 C            0.06482998       -1.32580395       -3.22416084
 C            1.39020771        0.72588011       -3.52819598
 C            1.29856568       -0.72483079       -3.50074689
 C            0.26861595        2.55129265       -2.45714542
 C            0.23081883        1.45937360       -3.32851133
 C           -1.33793458        3.59645883       -0.96165374
 C           -0.87945052        3.31738795       -2.31201037
 C           -3.36787874        2.43532143       -0.11616590
 C           -2.78528578        3.46627642       -0.95308506
 C           -3.78661563        0.14666436       -0.98614470
 C           -4.14089504        1.55501408       -0.96970698
 C           -2.17695843       -0.96369540       -2.42005097
 C           -1.08990236       -0.53311859       -3.19210901
 C           -0.98472340        0.81825971       -3.53824057
 C           -3.30628675       -0.16585091       -2.32097705
 C           -2.04062679        2.96362006       -3.10958021
 C           -3.22443650        3.24290761       -2.31885341
 C           -4.05653827        2.05303754       -2.33100740
 C           -2.13118022        1.60151663       -3.60290511
 C           -3.37500358        1.04087630       -3.11790529
