   70
C70 / DATE: 7/ 1/2024 / Origin: Program Fullerene / C70 from database
 C            1.41970820        0.06290041        5.08466129
 C            0.71449089       -1.19503218        4.95786393
 C            1.70474022       -2.17422038        4.56879912
 C            2.64915865       -0.05181331        4.31075479
 C            2.84317220       -1.44636910        4.01495880
 C            2.55334648        0.87921507        3.20621096
 C            0.60579291        1.07981050        4.45091676
 C            1.45517978        1.77347170        3.51392158
 C           -0.43960264       -0.97638581        4.09152336
 C           -0.58664045        0.45690987        3.91207279
 C           -0.66170143       -1.82241928        3.00419766
 C            1.32243506       -3.16253818        3.59014634
 C            0.04366775       -3.01995003        2.91291597
 C            2.98058938       -1.84838319        2.62772623
 C            2.33756069       -3.13603918        2.55187017
 C            2.69707544        0.44600329        1.87709302
 C            2.75825127       -0.92678675        1.59181294
 C            2.29959410        1.34323637        0.87718084
 C            0.84976368        2.36397873        2.42943536
 C            1.63520199        2.49436045        1.30375836
 C           -1.05322996        0.93717449        2.69341990
 C           -0.50770747        2.12434285        2.20605243
 C           -1.29376904       -1.32131448        1.85960784
 C           -1.59532046        0.04474900        1.77447978
 C           -1.44374366       -2.14183313        0.72715533
 C            0.25135717       -3.59309572        1.60646779
 C            1.67187747       -3.46137559        1.32338093
 C           -0.60872297       -3.25841933        0.57224855
 C            2.36054249       -1.39973352        0.32589849
 C            2.00720945       -2.75430529        0.18132948
 C            2.09285772        0.89104566       -0.43517659
 C            2.04112054       -0.48146272       -0.69355036
 C            1.65846188        1.80405331       -1.40998959
 C            1.16433090        3.38139364        0.36544172
 C            1.45524740        3.12792998       -1.02049434
 C           -1.05002430        2.68665258        1.04974374
 C           -0.25840448        3.64386897        0.42109093
 C           -2.10313748        0.55470336        0.58539484
 C           -1.90645194        1.90586780        0.25903865
 C           -2.12286022       -1.64156459       -0.39732790
 C           -2.60157367       -0.32716750       -0.36399622
 C           -1.98786007       -2.30152319       -1.63071521
 C           -0.10298727       -3.50618619       -0.69290408
 C            1.28026336       -3.12846352       -0.93124633
 C           -0.86386683       -3.08639171       -1.83701590
 C            1.56980532       -0.93541357       -1.93448878
 C            1.28345359       -2.28377770       -2.09504869
 C            0.09976898       -2.66643011       -2.83868831
 C            1.11087824        1.33869256       -2.61522736
 C            1.04031183       -0.03162437       -2.85967280
 C            0.44408376        2.21307630       -3.48263406
 C            0.52280931        3.96950094       -1.74336488
 C           -0.63737606        4.14012401       -0.87741939
 C            0.04014505        3.52079698       -3.02245328
 C           -2.36057013        2.39743960       -0.97804157
 C           -1.76021196        3.52538931       -1.54330047
 C           -1.41275788        3.50494553       -2.95084318
 C           -3.32088471        0.18370379       -1.43422526
 C           -3.12286322        1.57232413       -1.80591442
 C           -2.59595266       -1.77997475       -2.76759354
 C           -3.41352624       -0.59266420       -2.65095436
 C           -0.34413670       -1.82441021       -3.83741133
 C            0.25810239       -0.50632725       -3.92325653
 C           -1.78026715       -1.64096479       -3.96496369
 C           -0.67526093        1.71956041       -4.26058850
 C           -1.86962894        2.38797035       -3.74920217
 C           -2.91423785        1.62029817       -3.24978560
 C           -3.09774714        0.28133989       -3.77001768
 C           -0.72302269        0.36629836       -4.54816167
 C           -2.00630693       -0.31876752       -4.51289666
