   70
C70 / DATE: 7/ 1/2024 / Origin: Program Fullerene / C70 from database
 C            1.22118222        0.00905906        4.21480118
 C            2.44835124       -0.21341928        3.47144734
 C            2.43557431       -1.61071094        3.05817577
 C            0.38585424       -1.16904390        4.03104087
 C            1.04978318       -2.03439249        3.08500523
 C           -0.94409992       -0.72079131        3.71378412
 C            0.41493761        1.17891762        3.92035272
 C           -0.94843624        0.73206550        3.69821919
 C            0.93774883        2.17096619        3.11119928
 C            2.91367714        0.76389384        2.58857817
 C            2.22933562        1.97359412        2.46337586
 C            3.79358905        0.39133157        1.57429941
 C            3.21961754       -1.99890354        1.98836901
 C            4.10705746       -1.01442967        1.39966835
 C            2.58597446       -2.71228575        0.89282459
 C            0.41033875       -2.35144245        1.88482685
 C            1.18990125       -2.71400924        0.78203403
 C           -1.65787213       -1.36840403        2.71925282
 C           -0.95250913       -2.05999496        1.71411346
 C           -2.86725746       -0.77429451        2.39985372
 C           -1.76172673        1.36899876        2.75789084
 C           -2.90540804        0.68048242        2.36462790
 C            0.06370378        2.84030819        2.16415417
 C           -1.19879268        2.31022282        1.88509336
 C            2.16505109        2.61299376        1.15960581
 C            0.90000329        3.32012414        1.07768181
 C            3.64122918        0.98022141        0.24987858
 C            2.65394957        1.93096534        0.04817458
 C            4.18249392       -1.28280064       -0.02431189
 C            3.39953383       -2.47631003       -0.28808958
 C            3.83656507       -0.06262229       -0.73675241
 C            2.79407834       -2.58064018       -1.52537019
 C            0.60255877       -2.85074543       -0.47832762
 C            1.42971832       -3.06173439       -1.57966282
 C           -1.54306499       -2.27183106        0.45780135
 C           -0.73511783       -2.48065169       -0.66161616
 C           -3.61677922       -1.27271777        1.27629386
 C           -2.90084775       -2.02237053        0.27171152
 C           -3.59946997        1.06786863        1.15602569
 C           -4.22961289       -0.12924415        0.62613411
 C           -1.79648832        2.58104737        0.64393581
 C           -2.99160727        1.95354283        0.27456776
 C            0.32713428        3.51777495       -0.16323230
 C           -1.10459631        3.34381669       -0.29742107
 C            1.91438328        1.91844964       -1.13666301
 C            0.94174001        2.89498478       -1.32481918
 C            2.97104717       -0.15848965       -1.82237305
 C            2.82345509       -1.41854110       -2.39630499
 C            1.96267028        0.80589163       -1.99102379
 C            0.95569754       -2.71954994       -2.90075893
 C            1.79927935       -1.63324521       -3.38789234
 C           -1.25402950       -2.25105856       -1.94938955
 C           -0.41352233       -2.29044795       -3.05682014
 C           -3.35838730       -1.54991631       -1.02129221
 C           -4.17498801       -0.35887297       -0.80110928
 C           -2.47497216       -1.58938773       -2.09419356
 C           -3.39305354        1.94426405       -1.06577265
 C           -3.99347304        0.73961339       -1.62709771
 C           -1.35753980        3.13743527       -1.70757514
 C           -0.10527506        2.68465230       -2.30366578
 C           -2.54607049        2.53922905       -2.08803415
 C            0.99876982        0.65606521       -3.00708827
 C            0.92166181       -0.53728748       -3.72448053
 C           -0.37987256       -1.13638646       -3.93239809
 C           -0.08784889        1.53421102       -3.08305243
 C           -2.63719937       -0.68751966       -3.14879838
 C           -3.40741044        0.52236720       -2.93241616
 C           -2.53931484        1.64987481       -3.23302929
 C           -1.48064985       -0.30339420       -3.93925571
 C           -1.27035264        1.11265390       -3.69471077
