   70
C70 / DATE: 7/ 1/2024 / Origin: Program Fullerene / C70 from database
 C            1.22989195       -0.27753822        4.40737270
 C            2.52248700       -0.63433828        3.86845557
 C            2.41644398       -1.96305092        3.28775263
 C            0.37691240       -1.45082734        4.32421333
 C            1.09043489       -2.47519790        3.58518513
 C           -0.92295482       -1.01929814        3.84294939
 C            0.51597073        0.83813943        3.80948945
 C           -0.85090523        0.41029289        3.57435755
 C            1.14295558        1.62632560        2.85031378
 C            3.10034802        0.23052104        2.86363729
 C            2.51447469        1.46124501        2.59464486
 C            2.84205702       -1.87458745        1.89776673
 C            3.48517231       -0.58885827        1.72827885
 C            1.99682076       -2.34727302        0.90083219
 C            0.41235711       -3.16670646        2.59353287
 C            0.99027617       -3.23466529        1.25911588
 C           -1.63262336       -1.82617926        2.95753924
 C           -1.02003164       -2.96209815        2.42707482
 C           -2.68469746       -1.24177868        2.26166275
 C           -1.55781270        0.91842351        2.48602874
 C           -2.66623157        0.19962579        2.05822587
 C            0.34139597        2.30050811        1.92636603
 C           -0.91877906        1.79198510        1.59735231
 C            0.91030281        3.28711114        1.13786293
 C            3.08174462        2.17225852        1.54510960
 C            2.34755491        3.28020073        0.97542032
 C            3.48531445        0.01222808        0.47576731
 C            3.63520019        1.39882932        0.44382607
 C            1.91461820       -1.65822974       -0.31460961
 C            2.81809043       -0.61888010       -0.57791775
 C            0.91271044       -1.98402243       -1.24827951
 C           -0.09076531       -3.49009101        0.33719552
 C           -1.34134910       -3.39070501        1.07546072
 C           -0.03913586       -2.96637681       -0.94585848
 C           -3.18347991       -1.85305647        1.03947318
 C           -2.45094518       -2.86865085        0.42119826
 C           -3.24375517        0.47278828        0.75969425
 C           -3.76864508       -0.77984213        0.24458573
 C           -1.48525353        2.07026817        0.34002266
 C           -2.59981039        1.34682053       -0.10583202
 C            0.32519591        3.58540104       -0.15192032
 C           -0.89842548        3.02517681       -0.50084657
 C            2.63940659        3.32076193       -0.44719158
 C            3.38899509        2.12791579       -0.78771881
 C            1.39443040        3.58059311       -1.14026594
 C            2.82701326       -0.01518270       -1.82996428
 C            3.03432507        1.42231226       -1.92674259
 C            0.82397359       -1.28353487       -2.45940609
 C            1.82235268       -0.38221785       -2.80837089
 C           -0.35570399       -1.31265468       -3.20928732
 C           -1.21442141       -3.02310421       -1.68332134
 C           -2.48159382       -2.98222417       -0.96622006
 C           -1.35011078       -2.22534063       -2.88321345
 C           -3.89546459       -0.93719717       -1.12620590
 C           -3.39581773       -2.15608789       -1.72918312
 C           -2.73656186       -1.80328728       -2.97411892
 C           -2.91747983        1.30494402       -1.46557116
 C           -3.52468443        0.16512182       -1.99947959
 C           -3.00721085       -0.40496439       -3.23733015
 C           -1.23366888        3.03996194       -1.85097278
 C           -2.30748799        2.19775330       -2.33629648
 C            1.15104503        2.97371897       -2.36756046
 C            2.00552690        1.95459216       -2.81000401
 C            1.47165885        0.81846042       -3.54959296
 C           -0.15845754        3.00871215       -2.83275686
 C           -0.69805371       -0.21682609       -4.00542213
 C           -2.05407930        0.31484650       -3.94145458
 C           -1.93631186        1.73077120       -3.66042639
 C            0.21323169        0.90964289       -4.12207878
 C           -0.55798021        2.11661634       -3.90234365
