   70
C70 / DATE: 7/ 1/2024 / Origin: Program Fullerene / C70 from database
 C            1.22993900       -0.23951723        5.57974668
 C            0.42226801       -1.40778265        5.27792067
 C            1.14081730       -2.19979116        4.29787788
 C            2.43198640       -0.30358455        4.76322889
 C            2.31698149       -1.45584156        3.89211243
 C            2.61267449        0.99623439        4.15934294
 C            0.48787708        0.93265194        5.15181459
 C            1.41496227        1.77905469        4.43320110
 C           -0.79956581       -0.95370822        4.63754161
 C           -0.71028127        0.48112325        4.46213508
 C            0.19514731       -2.57199990        3.26032591
 C           -0.99975400       -1.76703969        3.45284105
 C            0.66797112       -2.69984990        1.95839207
 C            2.54507486       -1.32468536        2.52430395
 C            1.97251211       -2.28065385        1.68905008
 C            2.85550084        1.07055682        2.72922631
 C            2.91109161       -0.08767978        1.96567868
 C            0.98406823        2.34287316        3.17195781
 C            2.06291629        2.16646602        2.22249696
 C           -1.01774958        1.00364256        3.20648106
 C           -0.30690145        2.10460186        2.71513108
 C           -1.55657956       -1.17547015        2.32358329
 C           -1.73664714        0.20989630        2.30100716
 C           -0.26544639       -2.63010302        0.92445304
 C           -1.39336445       -1.83041890        1.10831268
 C            0.16278982       -2.90566671       -0.37325980
 C            2.41238023       -2.32454034        0.37757501
 C            1.53266764       -2.88332551       -0.62683005
 C            2.85397980        0.05411353        0.57630474
 C            2.95279815       -1.10108664       -0.18424206
 C            1.71578908        2.16841607        0.87703699
 C            2.23678650        1.18984453        0.02606049
 C           -0.58769243        2.51116262        1.41941875
 C            0.48397539        2.71736299        0.54551930
 C           -2.19668710        0.80336723        1.12147669
 C           -1.79662450        2.11162831        0.87195107
 C           -2.04096797       -1.32078929       -0.00649355
 C           -2.53114476       -0.01299131        0.03384532
 C           -0.71828455       -2.72299284       -1.44191341
 C           -1.87308855       -1.95873875       -1.22988047
 C           -0.20553073       -2.87287516       -2.73221334
 C            2.00488722       -2.36356872       -1.89382497
 C            2.59752570       -1.07372466       -1.58932391
 C            1.15812479       -2.45005799       -2.98047552
 C            1.79100128        1.18050605       -1.30594451
 C            2.02263341        0.07006083       -2.13036602
 C            0.19674711        2.92463719       -0.79735848
 C            0.93194805        2.19755784       -1.74164254
 C           -2.16850299        2.71056131       -0.31971122
 C           -1.10612052        3.31293304       -1.09568151
 C           -3.02905474        0.57590829       -1.13462164
 C           -2.97963697        1.96148808       -1.25660871
 C           -2.67090915       -1.55410137       -2.29474546
 C           -3.21214047       -0.20765817       -2.27612813
 C           -0.98239559       -2.45373953       -3.88190398
 C           -2.27791088       -1.85840313       -3.65647050
 C            1.05605179       -1.30409357       -3.86145313
 C            1.36637632       -0.03753956       -3.36277562
 C           -0.16948268       -1.49337855       -4.61740124
 C            0.59576844        2.26813010       -3.09284498
 C            0.74930139        1.08234995       -3.91311722
 C           -1.54902109        3.36848623       -2.47107839
 C           -2.75785980        2.56160325       -2.56242363
 C           -0.63569377        2.92441948       -3.49797072
 C           -3.01229661        0.36912884       -3.60317565
 C           -2.33482391       -0.62429499       -4.41964377
 C           -0.99470038       -0.33969660       -4.91082349
 C           -0.46324804        0.92853142       -4.71355688
 C           -2.63024653        1.69892838       -3.71860816
 C           -1.36296616        2.01316281       -4.36283869
