   70
C70 / DATE: 7/ 1/2024 / Origin: Program Fullerene / C70 from database
 C            1.62322732        0.05247256        4.56406873
 C            0.81174573       -1.14601745        4.45697217
 C            1.43484107       -2.02472554        3.48492086
 C            2.66808186       -0.02942144        3.55923872
 C            2.56860545       -1.31458231        2.90757234
 C            2.58405230        1.15185273        2.73535522
 C            0.78107357        1.18613953        4.22724588
 C            1.43579296        1.92877036        3.16523042
 C           -0.56046507       -0.73955218        4.23500229
 C           -0.56025408        0.69327431        3.98222943
 C           -1.36139417       -1.55281398        3.45116841
 C            0.62684840       -2.78585228        2.64178050
 C           -0.76192793       -2.67946829        2.74533692
 C            1.18619079       -3.25481455        1.45734098
 C            2.77126163       -1.39702049        1.53311805
 C            2.33509231       -2.55428476        0.90516902
 C            2.79742527        1.03691831        1.37169567
 C            2.92821601       -0.22673791        0.77321476
 C            2.39419667        2.10146628        0.58149411
 C            0.64370410        2.51364246        2.17886411
 C            1.22503309        2.78874128        0.93614678
 C           -1.24458865        1.19818885        2.88035553
 C           -0.73884731        2.33305840        2.24520923
 C           -2.31410806       -0.93655336        2.54598314
 C           -2.17540236        0.39973712        2.20720769
 C           -1.60244063       -2.95365895        1.58904345
 C           -2.59561308       -1.89104042        1.49715273
 C            0.33311052       -3.65663675        0.34932170
 C           -1.04282986       -3.45546146        0.41697789
 C            2.23650887       -2.59561779       -0.53746698
 C            1.04578612       -3.35706089       -0.88446579
 C            2.98092805       -0.30565872       -0.62897511
 C            2.56158828       -1.47133407       -1.28215843
 C            2.86558899        2.13811952       -0.71810815
 C            3.15688697        0.87181212       -1.36264520
 C            2.22622034        3.00630369       -1.67910622
 C            0.46121496        3.44726015       -0.03638441
 C            0.94256756        3.57936292       -1.33822555
 C           -1.53507101        2.96177225        1.30136913
 C           -0.89490175        3.65555036        0.19930689
 C           -2.72532387        0.85443434        1.00992098
 C           -2.65429334        2.21900481        0.75310278
 C           -2.97094746       -1.43928630        0.23671328
 C           -2.98229578       -0.05733651       -0.03307387
 C           -1.76167844       -3.31284838       -0.76666495
 C           -2.84945368       -2.34904802       -0.80750427
 C            0.32727803       -3.01743372       -2.02644330
 C           -1.05061932       -3.21540019       -2.03208272
 C            2.10333388       -1.41222844       -2.59523529
 C            0.91378279       -2.16523179       -2.96418102
 C            2.67941894        0.95668970       -2.73429578
 C            2.06929985        2.26145415       -2.91669576
 C            2.06048112       -0.14475907       -3.29792671
 C            0.04800922        3.33957872       -2.46247386
 C            0.66977085        2.33382724       -3.30260625
 C           -1.81939098        3.62857360       -0.92042815
 C           -2.89393060        2.70871874       -0.58283003
 C           -1.31591592        3.27213667       -2.23473695
 C           -3.18449656        0.40250621       -1.35111860
 C           -3.00891593        1.74748525       -1.65070275
 C           -2.05054257        2.10239259       -2.68693701
 C           -2.98806682       -1.89643341       -2.17050541
 C           -1.88585902       -2.44992691       -2.94089522
 C           -3.03301583       -0.47648874       -2.41621890
 C            0.08762157       -1.30232620       -3.80043287
 C            0.72381105       -0.00005166       -3.85631271
 C           -0.01535684        1.15520805       -3.59454937
 C           -1.39714259        1.07466797       -3.37018800
 C           -1.29022892       -1.37299466       -3.70796390
 C           -2.04327805       -0.16101364       -3.43429030
