   70
C70 / DATE: 7/ 1/2024 / Origin: Program Fullerene / C70 from database
 C            1.36311781       -0.02232338        5.08938242
 C            0.59571730       -1.23571859        4.85335700
 C            1.50993469       -2.23419424        4.35580606
 C            2.64622516       -0.18676519        4.43252884
 C            2.81550769       -1.60297273        4.19420217
 C            2.68840829        0.73097394        3.30200334
 C            0.67013525        1.06631784        4.42747783
 C            1.54161809        1.61614469        3.41051114
 C           -0.55180467       -0.87976671        4.04031164
 C           -0.61454860        0.56838612        3.99355989
 C           -0.84624517       -1.58859474        2.86898474
 C            1.19411951       -2.90059205        3.10878021
 C            0.05473031       -2.54650913        2.38169252
 C            3.34286565       -2.02136130        2.91355016
 C            2.44230000       -3.03207966        2.39089745
 C            3.06409729        0.27671357        2.03586674
 C            3.51591346       -1.03427995        1.85969283
 C            2.63890260        0.98821772        0.91248331
 C            0.95267044        2.07246853        2.23758095
 C            1.68264191        2.00074777        1.05940872
 C           -1.16852447        1.12615261        2.85726051
 C           -0.43845117        2.08119947        2.14213909
 C           -1.76113304       -1.00800904        1.97690810
 C           -2.06621067        0.34537162        2.14876531
 C           -2.01279018       -1.62233125        0.74093547
 C            0.00786693       -2.87870479        1.02866844
 C           -1.17307968       -2.66334122        0.32419134
 C            2.40857503       -2.86946705        0.95411738
 C            3.21384807       -1.71508783        0.61034780
 C            1.19889187       -2.99690656        0.29948149
 C            2.85260145        0.43320314       -0.34958624
 C            2.81456175       -0.95042845       -0.48294510
 C            2.58649562        1.20624135       -1.46666339
 C            1.15477171        2.60660586       -0.07846267
 C            1.82324594        2.42337211       -1.28473705
 C           -1.01842090        2.60389926        0.98415179
 C           -0.19282542        2.98799921       -0.07931383
 C           -2.84222372        1.00032768        1.21288477
 C           -2.34717678        2.27075415        0.72270380
 C           -2.90776038       -1.02084727       -0.16251090
 C           -3.35951162        0.26848185        0.07916460
 C           -3.07889652       -1.53728733       -1.44300961
 C           -1.19249474       -3.07655648       -1.00366373
 C           -2.26809250       -2.65220532       -1.86704160
 C            1.17677587       -2.62799781       -1.03658472
 C            1.92827059       -1.51031504       -1.41673974
 C            0.04469650       -2.96976305       -1.75151277
 C            2.05801586        0.54847023       -2.64601872
 C            1.53539836       -0.73767952       -2.51923555
 C            1.15439493        2.71121675       -2.53961763
 C            1.34120233        1.55313145       -3.40880423
 C           -0.77360480        3.48693447       -1.24839329
 C           -0.06324082        3.37503934       -2.51172767
 C           -2.89776184        2.47247606       -0.60223588
 C           -3.47851732        1.20495688       -1.03071338
 C           -2.18268741        3.23425204       -1.50957414
 C           -3.19718507       -0.62155355       -2.57178789
 C           -3.28492273        0.75279292       -2.33649871
 C           -1.68763938       -2.31648446       -3.15643549
 C           -0.24578335       -2.29172691       -2.99366908
 C            0.44973195       -1.13109889       -3.31399616
 C           -2.34336564       -1.12155539       -3.64404201
 C            0.32665850        1.14905711       -4.26323582
 C           -0.13651927       -0.22693882       -4.20621265
 C           -1.58613871       -0.21714905       -4.37163680
 C           -1.03928094        3.12278980       -3.55677042
 C           -2.33458806        2.94648238       -2.92159730
 C           -2.85468198        1.64871017       -3.31788988
 C           -0.83173647        2.00384106       -4.45675043
 C           -2.01706468        1.16486356       -4.40018338
