   70
C70 / DATE: 7/ 1/2024 / Origin: Program Fullerene / C70 from database
 C            1.19400024        0.04032362        4.50102009
 C            2.44969589       -0.15645402        3.81352491
 C            2.48929827       -1.54730297        3.41307952
 C            0.36517452       -1.13748835        4.26157295
 C            1.12194605       -2.03467728        3.42526296
 C           -0.91842260       -0.66821976        3.78923933
 C            0.39018500        1.18640070        4.14114213
 C           -0.98526299        0.72869148        4.16773121
 C            0.79135529        2.01203105        3.09039666
 C            2.72034307        0.63560230        2.62765325
 C            1.77668744        1.56542050        2.19810974
 C            3.21196032       -1.61487739        2.16160013
 C            3.33208900       -0.25211362        1.65674622
 C            2.82966161       -2.59874242        1.26646873
 C            0.57824234       -2.48899354        2.22671273
 C            1.46000018       -3.09639060        1.34053302
 C           -1.36370842       -1.03692992        2.52062953
 C           -0.60402000       -1.91343890        1.72766189
 C           -2.37535702       -0.27478645        1.93194521
 C           -1.93796133        1.52512406        3.56056290
 C           -2.76383874        0.93371255        2.52241615
 C           -0.11586116        2.97613103        2.66995665
 C           -1.50842910        2.81909708        3.05950536
 C           -0.09352286        3.42542261        1.29221292
 C            1.67295876        1.85705610        0.83142281
 C            0.84481048        2.90390567        0.41141133
 C            3.12389032       -0.02474733        0.29946632
 C            2.38147849        1.08954073       -0.11205847
 C            3.11041606       -2.38587200       -0.13538432
 C            3.31835265       -1.08488565       -0.58773139
 C            1.03089411       -3.39324031       -0.00934212
 C            2.19567269       -3.24456313       -0.86296309
 C           -1.00202704       -2.15996187        0.40338192
 C           -0.19187526       -2.91561355       -0.45744955
 C           -2.80907502       -0.57336409        0.64182173
 C           -2.18717894       -1.59454357       -0.07815164
 C           -3.61092432        0.34868902       -0.03025569
 C           -3.22498947        2.02501628        1.68015665
 C           -2.33983126        3.14664892        1.91601017
 C           -1.47019936        3.57647546        0.83857177
 C           -3.57729412        1.73731248        0.37512254
 C           -1.78617232        3.21914408       -0.47057411
 C           -2.93819916        2.46755451       -0.71458776
 C            0.61336439        3.09456466       -0.94283625
 C           -0.75949874        3.21781953       -1.40887291
 C            2.24924447        1.35447665       -1.48157302
 C            1.34726264        2.31578423       -1.91267703
 C            3.23838922       -0.84462185       -1.95174572
 C            2.67141327        0.40856522       -2.41042141
 C            2.00265950       -3.00011018       -2.21219827
 C            2.73700988       -1.90157706       -2.81562428
 C           -0.43396836       -2.90889403       -1.83195442
 C            0.64327126       -2.93881938       -2.72284265
 C           -2.59055492       -1.84655715       -1.39034811
 C           -1.67743368       -2.51059206       -2.30066209
 C           -3.62627004        0.35540518       -1.47623527
 C           -3.01690977        1.61388780       -1.89398002
 C           -3.28148542       -0.80659265       -2.13938319
 C           -0.88588710        2.44690549       -2.63576846
 C            0.44586659        1.99823254       -3.01049700
 C           -1.97371462        1.60149039       -2.82007781
 C            1.82658341        0.12861016       -3.56469765
 C            1.88807545       -1.29604770       -3.82606751
 C            0.64917923       -2.04312464       -3.87167167
 C            0.60788867        0.79353177       -3.68735663
 C           -1.74995042       -1.82572035       -3.57992176
 C           -2.62379636       -0.68135428       -3.42276201
 C           -1.84671289        0.51716559       -3.68481257
 C           -0.51615326       -1.36219337       -4.18309471
 C           -0.52283468        0.09767199       -4.12646884
