   70
C70 / DATE: 7/ 1/2024 / Origin: Program Fullerene / C70 from database
 C            1.26550733        0.18621041        5.04355424
 C            0.48859616       -1.03961624        4.99814197
 C            1.31546364       -2.06964207        4.39753792
 C            2.50094495       -0.04805289        4.31716149
 C            2.56190803       -1.45046990        3.97576538
 C            2.56670893        0.91649973        3.23949938
 C            0.52098516        1.21077629        4.32925289
 C            1.36408266        1.72638526        3.27196383
 C           -0.79001648       -0.73210517        4.38539752
 C           -0.76313492        0.65947043        3.95872609
 C           -1.37470930       -1.66813501        3.54223928
 C            0.78820280       -2.82125711        3.26959997
 C           -0.56132949       -2.73394001        2.96235863
 C            2.78442794       -1.80650115        2.58768153
 C            1.75698348       -2.74668030        2.19009335
 C            3.03265568        0.52937090        1.99049467
 C            3.15478197       -0.83237905        1.66548557
 C            2.81808848        1.42026770        0.94780226
 C            0.78094590        2.06184031        2.05125775
 C            1.60302705        2.12162812        0.92649320
 C           -1.29059429        0.98555057        2.71249969
 C           -0.58931301        1.85537142        1.86490568
 C           -2.26108738       -1.19520805        2.49609310
 C           -2.27318410        0.15896921        2.16789849
 C           -0.97619368       -2.89708587        1.57914633
 C           -2.20572857       -2.15662321        1.41226961
 C            1.32593434       -2.70798315        0.86515346
 C           -0.03537282       -2.84776425        0.55861899
 C            3.11514422       -1.18797319        0.31412284
 C            2.18239752       -2.15455033       -0.08816076
 C            3.46574669        1.14257716       -0.24326568
 C            3.58410922       -0.25342008       -0.60606731
 C            3.10964462        1.89054395       -1.42472227
 C            1.04605149        2.52538580       -0.29015891
 C            1.85236210        2.60586331       -1.41812615
 C           -1.16305996        2.18447954        0.63612246
 C           -0.34187553        2.52959379       -0.44489449
 C           -2.84253668        0.52107883        0.95084328
 C           -2.45458271        1.73366957        0.38453666
 C           -2.54597984       -1.69619142        0.15129503
 C           -3.25445776       -0.50702613        0.10129929
 C           -0.47743020       -2.58382547       -0.74129255
 C           -1.74615909       -2.02352911       -0.94898910
 C            1.84472857       -2.29278320       -1.43024916
 C            0.45818898       -2.56057694       -1.76477877
 C            3.25108797       -0.37629532       -2.01408713
 C            3.08866463        0.96307590       -2.54384706
 C            2.37688939       -1.37134665       -2.41858165
 C            1.25616640        2.41516089       -2.72233519
 C            1.91406107        1.26891669       -3.33521292
 C           -0.90653977        2.70337618       -1.71778941
 C           -0.11828055        2.52424513       -2.86555330
 C           -3.09948890        2.15728965       -0.76943824
 C           -2.29785262        2.73536987       -1.83347050
 C           -3.84965933       -0.17377133       -1.10055084
 C           -4.03088588        1.23306515       -1.38525565
 C           -2.08881002       -1.47751416       -2.19796304
 C           -3.30371372       -0.78635281       -2.29813655
 C            0.15191185       -1.87037189       -3.00050821
 C            1.31163067       -1.06674162       -3.36643413
 C            1.12311806        0.23648273       -3.83760863
 C           -1.11728979       -1.34732006       -3.20522923
 C           -0.66225547        1.88399254       -3.97454167
 C           -0.13035785        0.58271815       -4.33353785
 C           -1.23032981       -0.34930165       -4.17116596
 C           -2.92536359        2.37826029       -3.09669634
 C           -3.96555241        1.40438930       -2.82227719
 C           -3.53821002        0.13646645       -3.39337787
 C           -2.09742508        1.82489033       -4.14250560
 C           -2.45238730        0.41910327       -4.29850257
