   70
C70 / DATE: 7/ 1/2024 / Origin: Program Fullerene / C70 from database
 C            0.90700857       -0.07832300        5.01857674
 C            2.23536961       -0.29515666        4.47953010
 C            2.21055807       -1.55607361        3.75136372
 C            0.10563723       -1.24238867        4.67358598
 C            0.82962349       -1.97858737        3.65692599
 C           -1.22612973       -0.77851813        4.36699982
 C            0.15862990        1.10003318        4.61554888
 C           -1.20862086        0.67862059        4.39051273
 C            0.73207234        2.02555249        3.74975712
 C            2.81738920        0.70269009        3.59942542
 C            2.10882410        1.86391660        3.30085620
 C            2.95269528       -1.36608872        2.52295409
 C            3.49184350       -0.01755835        2.53386711
 C            2.43308656       -1.85586377        1.33040556
 C            0.26956751       -2.14570433        2.38957439
 C            1.11223403       -2.32684551        1.28996074
 C           -1.82614932       -1.17491703        3.10815650
 C           -1.09350849       -1.90563938        2.17502637
 C           -1.90658799        1.13420571        3.20082303
 C           -2.56493115       -0.02880852        2.63381334
 C           -0.04252535        2.56145699        2.63572029
 C           -1.29872864        2.03981876        2.32884714
 C            2.21030907        2.44836518        1.97217001
 C            0.87985737        2.85922640        1.55468117
 C            3.70899683        0.61022559        1.31412576
 C            3.06602290        1.88815876        1.03604773
 C            3.04298459       -1.44908180        0.14659987
 C            3.62633434       -0.18475164        0.09876292
 C            2.62601694       -2.02426273       -1.04432186
 C            0.55806993       -2.69821086        0.06481244
 C            1.40173930       -2.79894587       -1.03871217
 C           -1.58650723       -1.95830219        0.86940114
 C           -0.82039421       -2.56820045       -0.12108518
 C           -2.88890697        0.01773876        1.29158324
 C           -2.63575976       -1.10296501        0.50305093
 C           -1.75404422        2.07993703        1.00699781
 C           -2.82607795        1.25416031        0.67430767
 C            0.46558756        2.64722103        0.24313415
 C           -0.89623790        2.51084869       -0.01536628
 C            2.67745232        1.89112812       -0.36448211
 C            3.25781336        0.71479796       -0.97965371
 C            1.38783431        2.26520125       -0.73418744
 C            2.59610831       -1.20006504       -2.23922128
 C            2.63410667        0.18562190       -2.09945023
 C            0.85469149       -2.76072691       -2.38472412
 C            1.63607044       -1.79979227       -3.15277976
 C           -1.37864803       -2.74822005       -1.38308285
 C           -0.52001453       -2.82456402       -2.55359793
 C           -3.07474418       -1.06650318       -0.82440683
 C           -2.55923410       -1.98244952       -1.74072270
 C           -3.36819094        1.34924317       -0.59288793
 C           -3.67638627        0.10829035       -1.28033257
 C           -1.33417768        2.44596873       -1.33994138
 C           -2.68441953        2.17876276       -1.55658550
 C            0.91943717        1.87479667       -1.98886131
 C            1.65722157        0.94557462       -2.73743603
 C           -0.39781828        2.17438190       -2.34549160
 C            1.00205452       -0.98257899       -4.07972072
 C            1.13826676        0.45563380       -3.93020392
 C           -1.15230993       -2.07682567       -3.62987267
 C           -2.45935905       -1.64119530       -3.15558120
 C           -0.38074389       -1.24498835       -4.43758331
 C           -3.70629737        0.41517034       -2.69983591
 C           -3.14955232        1.75230586       -2.86181987
 C           -3.02526682       -0.46211658       -3.62945791
 C           -0.80907693        1.97401516       -3.66401615
 C           -0.04177876        1.07338871       -4.49740846
 C           -0.93362524        0.00541700       -4.92729750
 C           -2.20443898        1.70943964       -3.95162144
 C           -2.28032252        0.38390533       -4.54615631
