   70
C70 / DATE: 7/ 1/2024 / Origin: Program Fullerene / C70 from database
 C            1.50986435        0.09036100        4.72872862
 C            0.74131718       -1.12780148        4.54265842
 C            1.43959026       -1.95135587        3.57029388
 C            2.65440960        0.02477092        3.83907517
 C            2.73179313       -1.32647477        3.32434507
 C            2.55477118        1.11353162        2.88121560
 C            0.68034453        1.19924535        4.29758522
 C            1.34261144        1.85342201        3.18888569
 C           -0.62959443       -0.74701575        4.26838720
 C           -0.66147718        0.69783160        4.08369323
 C           -1.36762770       -1.53764545        3.40010722
 C            0.72324154       -2.50036324        2.50113572
 C           -0.67194297       -2.47631630        2.52783699
 C            1.38246647       -2.77281940        1.29750182
 C            3.31309664       -1.50191152        2.08308950
 C            2.74345370       -2.49370067        1.20076534
 C            2.87634239        0.85596163        1.54484387
 C            3.54730408       -0.32730186        1.25254694
 C            2.16875917        1.51534678        0.52960724
 C            0.56975934        2.29905360        2.13205341
 C            1.17710330        2.42811796        0.89385462
 C           -1.40335628        1.21730941        3.02627637
 C           -0.82199861        2.18072919        2.18897203
 C           -2.41376270       -0.91265124        2.61276719
 C           -2.48546250        0.47626802        2.55529836
 C           -1.40795363       -2.54674071        1.27579563
 C           -2.55356563       -1.66781473        1.37775712
 C            0.64287078       -2.95721481        0.12236145
 C           -0.70169489       -2.59725759        0.08809509
 C            1.30755685       -3.18465592       -1.07813274
 C            3.31193667       -2.22016329       -0.09999716
 C            3.60785786       -0.79251535       -0.11801820
 C            2.69800353       -2.77095065       -1.20852561
 C            2.26606605        1.08510120       -0.80685226
 C            3.07406578       -0.00982234       -1.13687474
 C            1.51345139        1.72637894       -1.80356119
 C            0.50697621        3.14495201       -0.07872800
 C            0.75786876        2.84780404       -1.47264768
 C           -1.58054795        2.72633128        1.14930486
 C           -0.92106744        3.35614316        0.08887992
 C           -3.29167138        1.03504116        1.57564378
 C           -2.89739834        2.30294485        0.99335116
 C           -3.01192515       -0.99726400        0.24982389
 C           -3.70935003        0.18616058        0.47419709
 C           -1.24882596       -2.03732652       -1.07044280
 C           -2.37874315       -1.20269497       -0.98745924
 C            0.63123898       -2.87459600       -2.32680593
 C           -0.62869657       -2.27614244       -2.30187172
 C            2.81249494       -2.04582309       -2.45563207
 C            2.94544719       -0.60114323       -2.38992816
 C            1.62939053       -2.34070092       -3.23446463
 C            1.35277974        1.13912566       -3.06424655
 C            2.02841647       -0.04069388       -3.36125326
 C            1.29585704       -1.14543629       -3.97590021
 C            0.25214702        1.47927512       -3.85339171
 C           -0.46024801        3.14160054       -2.20813874
 C           -1.51655390        3.39806136       -1.23964120
 C           -0.73799406        2.42127148       -3.36038305
 C           -3.53980170        2.38491457       -0.30732488
 C           -4.02679562        1.05199288       -0.63616248
 C           -2.78371081        2.87038277       -1.44612835
 C           -2.80247658       -0.47661940       -2.11197904
 C           -2.05521381        1.82133015       -3.54374162
 C           -3.51458064        0.70907723       -1.94046805
 C           -3.00001575        1.93187557       -2.53412181
 C           -1.04089723       -1.56867741       -3.42918346
 C           -0.03735119       -0.94491257       -4.28779316
 C           -0.46555733        0.41567100       -4.52853879
 C           -2.16712883       -0.66305779       -3.33352429
 C           -1.85566616        0.51019676       -4.13487194
