   70
C70 / DATE: 7/ 1/2024 / Origin: Program Fullerene / C70 from database
 C            1.18020169       -0.05392903        4.61226908
 C            2.49933469       -0.32352052        4.07331932
 C            2.49602949       -1.67964350        3.55295841
 C            0.36417365       -1.24043211        4.40417888
 C            1.13450016       -2.18468939        3.62759025
 C           -0.91468574       -0.81475093        3.88535840
 C            0.43534773        1.09237849        4.11744589
 C           -0.89304407        0.63458463        3.75725324
 C            1.06504567        2.02605914        3.30935364
 C            3.02574365        0.54728248        3.03896309
 C            2.40378813        1.76361358        2.78930975
 C            3.16144282       -1.66763949        2.26163896
 C            3.42450363       -0.28050881        1.91082346
 C            2.69811593       -2.52791242        1.28044072
 C            0.56800559       -2.74473939        2.48573998
 C            1.42737627       -3.20243639        1.48739692
 C           -1.52424740       -1.55151838        2.87682140
 C           -0.78718214       -2.52905324        2.18927217
 C           -2.61603255       -0.95390312        2.25454894
 C           -1.57646774        1.21297869        2.68676384
 C           -2.64918802        0.49686709        2.17280085
 C            0.30029140        2.67516180        2.25746216
 C           -0.93826277        2.16369442        1.87688432
 C            2.45956353        2.31176909        1.44835720
 C            1.24029792        3.07178494        1.23030738
 C            3.17733906        0.17163529        0.61250409
 C            2.95766313        1.53793484        0.40329855
 C            2.72350968       -2.09569937       -0.10322548
 C            2.88864732       -0.74864996       -0.40628367
 C            0.90382570       -3.54723310        0.17916276
 C            1.70658333       -2.84986324       -0.81391106
 C           -1.33989737       -3.14141376        1.06229795
 C           -0.46637489       -3.62103232        0.00413437
 C           -3.14129321       -1.48820924        1.01189970
 C           -2.52489700       -2.57860859        0.43343017
 C           -3.20290887        0.85724788        0.88860219
 C           -3.53517258       -0.36756908        0.17729721
 C           -1.40765421        2.42185613        0.57915594
 C           -2.64782448        1.90489514        0.17250227
 C            0.78830442        3.22013177       -0.07150704
 C           -0.57591061        3.09475785       -0.33592473
 C            2.74731375        2.00342312       -0.88877092
 C            1.69906166        2.98802727       -1.09939679
 C            2.47472774       -0.29328711       -1.65733537
 C            2.65099708        1.04825506       -1.97119400
 C            1.08225195       -2.26010788       -1.90812613
 C            1.62642375       -1.08568225       -2.43931729
 C           -1.03575995       -3.20776145       -1.26531365
 C           -2.32953658       -2.60045260       -1.00508752
 C           -0.22377042       -2.64146444       -2.24206002
 C           -3.34497513       -0.40696649       -1.20395828
 C           -2.73180916       -1.52209424       -1.79551792
 C           -3.05162670        2.02553699       -1.15101375
 C           -3.38457678        0.81194238       -1.88271496
 C           -1.01645111        3.35069479       -1.63220556
 C           -2.32831831        2.90370406       -2.03765337
 C            1.22547505        2.84713136       -2.46587646
 C            1.85482455        1.65875760       -3.02374415
 C           -0.10723603        3.11934680       -2.74297870
 C            1.14093475       -0.59303644       -3.64714553
 C            1.14253109        0.83950927       -3.88678426
 C           -0.86345747       -2.01696865       -3.30665559
 C           -2.16909672       -1.41808775       -3.06913379
 C           -0.10672388       -1.12086984       -4.15561179
 C           -2.83550943        0.93241632       -3.22049766
 C           -2.20307352        2.23882435       -3.32516614
 C           -0.81308799        2.33130502       -3.74117442
 C           -0.19648279        1.22207308       -4.31030820
 C           -2.22851084       -0.16727722       -3.80409320
 C           -0.96312951        0.00143103       -4.50185605
