   70
C70 / DATE: 7/ 1/2024 / Origin: Program Fullerene / C70 from database
 C            1.15128355       -0.18150701        4.46348054
 C            2.43661516       -0.55689674        3.92067119
 C            2.40632921       -1.97878108        3.62836816
 C            0.31495351       -1.37000951        4.50255877
 C            1.07981498       -2.47648333        3.96198568
 C           -0.96165775       -1.03379177        3.89831803
 C            0.40134081        0.86644534        3.79639514
 C           -0.94943693        0.38966122        3.58631082
 C            0.98980782        1.61057000        2.78512450
 C            2.90111728        0.12619122        2.73257235
 C            2.26525017        1.28012941        2.30386357
 C            2.92592182       -2.17055094        2.28056876
 C            3.22638667       -0.86238217        1.72467340
 C            2.35166632       -3.13253185        1.46862829
 C            0.45640344       -3.36311184        3.09536154
 C            1.20778702       -3.88209126        1.96549087
 C           -1.56021404       -1.91598208        3.00153183
 C           -0.90316720       -3.09552567        2.63769761
 C           -2.55697460       -1.41986191        2.16747488
 C           -1.66697081        0.84079392        2.47792100
 C           -2.67753910        0.02054533        1.99970541
 C            0.14617896        2.34940632        1.95727254
 C           -1.10806440        1.81504566        1.63303557
 C            0.74334667        3.26642603        1.10426905
 C            2.59992067        1.73623311        1.03953990
 C            2.10428450        2.98136872        0.69525751
 C            2.91959649       -0.56522158        0.39328775
 C            2.79405576        0.77908133        0.03144637
 C            2.10981400       -2.82663773        0.06952758
 C            2.36185635       -1.54536575       -0.43548111
 C            0.28341409       -4.07051067        0.86322039
 C           -1.01742721       -3.58672505        1.26948786
 C            0.87935341       -3.49263139       -0.31678405
 C           -2.75628896       -2.02371704        0.86081381
 C           -1.78118278       -2.86645357        0.35639731
 C           -3.23345828        0.26398043        0.69013897
 C           -3.33013838       -1.01342135        0.00025136
 C           -1.67966575        2.06992142        0.36887521
 C           -2.82607150        1.37389089       -0.03652715
 C            0.02981806        3.71251151       -0.07183457
 C           -1.06920932        2.97963233       -0.50977375
 C            2.26909625        3.44064608       -0.66157691
 C            1.04236635        4.12417135       -1.02679039
 C            2.49297266        1.10136340       -1.29430382
 C            2.52148042        2.44139093       -1.67496324
 C            1.71470129       -1.16085484       -1.61927944
 C            1.84656799        0.15042847       -2.09490040
 C            0.06582107       -2.83773106       -1.21996297
 C           -1.29183807       -2.63518836       -0.93595001
 C            0.68540405       -1.97219982       -2.10241002
 C           -3.06867431       -1.03600219       -1.36261640
 C           -2.04793684       -1.87615366       -1.84302758
 C           -3.20240372        1.40136523       -1.37404416
 C           -3.39319681        0.12956197       -2.05370773
 C           -1.42398405        3.00747218       -1.86717614
 C           -2.53815996        2.29866185       -2.29360332
 C            0.81769456        3.85786312       -2.42702809
 C            1.80140156        2.86741160       -2.85229003
 C           -0.47712553        3.35643183       -2.83171054
 C            1.19590448        0.52977481       -3.28252068
 C            1.09716926        1.87386309       -3.63115043
 C           -0.21589142        2.43002014       -3.91522515
 C           -0.04133117       -1.58181635       -3.20746460
 C           -1.48687995       -1.64283525       -3.10410213
 C            0.30747012       -0.35477197       -3.88573641
 C           -3.00588418        0.29194569       -3.43679928
 C           -2.49937395        1.64526706       -3.59608115
 C           -1.23264012        1.57187378       -4.30587674
 C           -2.02863152       -0.61972693       -3.97736127
 C           -0.91294820        0.16612497       -4.48346383
