   70
C70 / DATE: 7/ 1/2024 / Origin: Program Fullerene / C70 from database
 C            1.56335114       -0.07173735        4.56978656
 C            0.76755773       -1.24063603        4.23770341
 C            1.53303927       -2.04930918        3.32334139
 C            2.72616814       -0.06811406        3.69897594
 C            2.71239870       -1.28945912        2.93250328
 C            2.73408818        1.17896437        2.97702605
 C            0.77307455        1.10461447        4.25320298
 C            1.53459103        1.92046245        3.33772403
 C           -0.53195127       -0.79041244        3.80489863
 C           -0.53231502        0.66151298        3.83073167
 C           -1.13692635       -1.41536705        2.71898812
 C            0.87212931       -2.75662729        2.32848567
 C           -0.46783659       -2.43981499        2.02137432
 C            1.68900779       -3.25695303        1.32603084
 C            3.05030588       -1.25395873        1.58022962
 C            2.77241108       -2.40977495        0.85262638
 C            3.11775003        1.19023422        1.64248217
 C            3.10696686       -0.01551568        0.90962896
 C            2.88575251        2.38619708        0.97639504
 C            0.86915796        2.60761676        2.32481280
 C            1.66338116        3.10726772        1.29659755
 C           -1.15617222        1.31657281        2.77942121
 C           -0.47886229        2.31424315        2.05733290
 C           -2.17983485       -0.73657625        2.09277036
 C           -2.21707795        0.65988920        2.16762645
 C           -2.92610296       -1.40803411        1.13767926
 C           -1.08043608       -3.00601291        0.88599208
 C           -2.32964939       -2.54843197        0.47284690
 C            1.09255539       -3.90165472        0.18472640
 C           -0.32596225       -3.73140746       -0.03171751
 C            2.65541959       -2.34075222       -0.58889696
 C            1.78498979       -3.41867258       -0.99843521
 C            2.97924616        0.01720025       -0.49225792
 C            2.51038208       -1.09704340       -1.17909645
 C            3.08326204        2.45183601       -0.44974459
 C            3.10700322        1.21013186       -1.18525375
 C            1.05208860        3.51234680        0.04581518
 C            2.02153989        3.27589164       -1.00195166
 C           -1.07786257        2.81649253        0.89423381
 C           -0.27639077        3.18930271       -0.18942226
 C           -3.01408203        1.39140064        1.29879894
 C           -2.43323662        2.57175778        0.68986315
 C           -3.69476912       -0.66226144        0.15765821
 C           -3.81425683        0.71104038        0.29667235
 C           -2.61344848       -2.43207732       -0.95316495
 C           -3.41985777       -1.23519085       -1.15236845
 C           -0.51465070       -3.48797814       -1.45226885
 C            0.78740019       -3.14274027       -2.00309685
 C           -1.63184656       -2.77335020       -1.88325585
 C            1.71672721       -0.93758105       -2.32937309
 C            0.88788750       -1.98977530       -2.76728015
 C            2.31622271        1.40332922       -2.38435781
 C            1.56782431        2.64173333       -2.21817194
 C            1.66431264        0.31694106       -2.96446555
 C           -0.71092939        2.96499412       -1.50539865
 C            0.20912507        2.62830762       -2.50897032
 C           -2.98553519        2.69941195       -0.64338094
 C           -3.83087794        1.54041782       -0.89185990
 C           -2.07257648        2.83139301       -1.76045580
 C           -3.17051982       -0.40794194       -2.24604467
 C           -3.42556315        0.96204036       -2.15964020
 C           -2.51559873        1.90810596       -2.78959116
 C           -1.53109353       -2.04488832       -3.06908696
 C           -0.20719302       -1.70953371       -3.57093042
 C           -2.38735381       -0.88958355       -3.28882922
 C            0.60727696        0.61319213       -3.82271635
 C           -0.19188273        1.79686909       -3.55056053
 C           -1.59290511        1.44383428       -3.71270006
 C           -0.28769900       -0.43741556       -4.24397354
 C           -1.65113811        0.05103740       -4.11626409
