   70
C70 / DATE: 7/ 1/2024 / Origin: Program Fullerene / C70 from database
 C            1.02771173       -0.05414395        4.90098804
 C            2.28655143       -0.25945712        4.21185477
 C            2.20957817       -1.55189458        3.55390742
 C            0.18364459       -1.20819649        4.62236871
 C            0.82866404       -1.97883243        3.57873044
 C           -1.15606775       -0.72843860        4.39554014
 C            0.25013443        1.13798527        4.61538462
 C           -1.13266768        0.72587169        4.48041587
 C            0.75284501        2.10341410        3.74977179
 C            2.72342175        0.71083815        3.22093458
 C            2.02335992        1.89554610        3.06018761
 C            2.83980754       -1.41994925        2.26404370
 C            3.15135390       -0.02221954        2.04208332
 C            2.30162961       -2.10226630        1.19270858
 C            0.18445312       -2.19946800        2.35658653
 C            0.96245681       -2.51246001        1.23921417
 C           -1.81542210       -1.07445462        3.15353553
 C           -1.14884402       -1.81022844        2.16841395
 C           -1.92131301        1.23763849        3.37170929
 C           -2.56138527        0.09756721        2.74723207
 C           -0.14336977        2.77134840        2.81735836
 C           -1.40838900        2.23916665        2.55010757
 C            1.89922647        2.46352870        1.72953768
 C            0.67987118        3.25082250        1.71985179
 C            2.92693788        0.49406844        0.76039370
 C            2.23352683        1.70138926        0.60718863
 C            2.80826239       -1.76572265       -0.04412087
 C            2.96709939       -0.40041365       -0.31431477
 C            2.48242134       -2.62026377       -1.07680102
 C            0.32814855       -2.82915830        0.03283501
 C            1.13759482       -3.16436771       -1.05402425
 C           -1.68190552       -1.78751306        0.87317027
 C           -0.96057034       -2.33644507       -0.19600552
 C           -2.91055986        0.19849003        1.41589582
 C           -2.75261166       -0.92805453        0.61700848
 C           -1.96694229        2.40508053        1.27884084
 C           -2.87834421        1.45220735        0.81079858
 C            0.07633083        3.51888170        0.50683764
 C           -1.34362595        3.26185607        0.37207168
 C            1.67442011        2.03210277       -0.63428448
 C            0.70582942        3.03357895       -0.70817676
 C            2.69261447        0.07411726       -1.59691834
 C            1.86269645        1.18976552       -1.73352796
 C            2.78354856       -2.20832471       -2.42612382
 C            2.88395916       -0.78723315       -2.67553246
 C            0.61310527       -3.06975842       -2.40211671
 C            1.73008683       -2.72775066       -3.27274674
 C           -1.45433609       -2.21733806       -1.50688732
 C           -0.62554044       -2.47287549       -2.60419552
 C           -3.34756654       -0.92295539       -0.63307913
 C           -2.69663044       -1.62105261       -1.72349346
 C           -3.39843722        1.56477676       -0.47559167
 C           -3.83326807        0.34757104       -1.14272953
 C           -1.61238295        3.12942985       -1.04865606
 C           -0.33470174        2.93697076       -1.71632971
 C           -2.70044442        2.37906443       -1.45737921
 C            1.00448411        1.30138357       -2.83696298
 C           -0.21616276        1.96466244       -2.70016982
 C            2.20279939       -0.52902945       -3.92804602
 C            1.52846583       -1.75882362       -4.32913550
 C            1.22996743        0.54078171       -3.97713140
 C           -0.91379364       -1.88521258       -3.83922168
 C            0.16964344       -1.41342754       -4.68334329
 C            0.08062675        0.03668939       -4.69773395
 C           -2.91903127       -0.84794414       -2.93765655
 C           -3.45213148        0.44095951       -2.53740085
 C           -2.60158970        1.60752287       -2.68427896
 C           -1.36680332        1.44567939       -3.30861997
 C           -1.93403625       -0.86118439       -3.91024950
 C           -1.23840420        0.38610142       -4.20452141
