   70
C70 / DATE: 7/ 1/2024 / Origin: Program Fullerene / C70 from database
 C            1.14237075       -0.04574081        4.63384446
 C            2.36546094       -0.37267632        3.94122083
 C            2.23081681       -1.74246822        3.46963617
 C            0.31057028       -1.23872238        4.60479257
 C            0.83025135       -2.07891677        3.54653616
 C           -1.05600200       -0.79699159        4.51436937
 C            0.32912055        1.03663757        4.12166947
 C           -1.04257310        0.65523018        4.37876925
 C            0.63363416        1.60628534        2.88772453
 C            2.74945747        0.42498546        2.79257876
 C            1.86648850        1.35569866        2.26455169
 C            2.85635397       -1.80260479        2.17773164
 C            3.39393178       -0.48540711        1.87786091
 C            2.20126662       -2.45995791        1.14909271
 C            0.10600379       -2.23063003        2.35563578
 C            0.79355734       -2.46475632        1.15177287
 C           -1.86500947       -1.29509637        3.42583253
 C           -1.26435541       -1.93661015        2.33403890
 C           -2.05437789        0.99146237        3.39081473
 C           -2.80473844       -0.22927510        3.16260590
 C           -0.38625833        2.22798460        2.16515900
 C           -1.70304692        1.76997118        2.28624789
 C           -0.03964628        3.00835725        1.07349636
 C            2.06452618        1.77844167        0.95081752
 C            1.26803220        2.80959748        0.47340734
 C            3.49105416       -0.14919696        0.53180398
 C            2.78822650        0.97400180        0.05297938
 C            2.86834319       -2.41700163       -0.06229138
 C            3.66707628       -1.23065787       -0.32137887
 C            2.15844187       -2.72281489       -1.27649286
 C            0.09039178       -2.45103589       -0.06646544
 C            0.77176682       -2.68904741       -1.26979693
 C           -1.97024221       -1.96951172        1.12784732
 C           -1.28657139       -2.17082582       -0.08132827
 C           -3.54733017       -0.31817708        2.00812293
 C           -3.25723886       -1.42260481        1.11691519
 C           -2.53431657        1.73715353        1.15829538
 C           -3.60859100        0.84865311        1.15179076
 C           -0.99741086        3.17269595       -0.00164271
 C           -2.12300086        2.35370678       -0.03235099
 C            1.13812996        3.01741171       -0.95215772
 C           -0.23987846        3.41127286       -1.21438907
 C            2.65257654        1.17593688       -1.33626582
 C            1.78991658        2.16052919       -1.83068646
 C            3.68410285       -1.01015954       -1.74293095
 C            2.87704835       -2.05597137       -2.35051814
 C            3.19385160        0.25365172       -2.23487075
 C            2.11673728       -1.44715301       -3.42458327
 C            2.48372805       -0.03779203       -3.46601656
 C            0.11873851       -2.51596590       -2.48409388
 C            0.78447276       -1.80698652       -3.57065838
 C           -1.97228242       -2.05386968       -1.30477281
 C           -1.27105861       -2.13441248       -2.49573521
 C           -3.87968785       -1.07204887       -0.13796924
 C           -4.11775517        0.36648029       -0.10980575
 C           -3.17624817       -1.36845838       -1.35806257
 C           -2.68550722        1.98436783       -1.26695144
 C           -3.57733307        0.92072333       -1.32846532
 C           -3.26502180       -0.19294548       -2.20656358
 C           -0.81265554        3.09738258       -2.43404611
 C           -2.03924378        2.31977043       -2.45496287
 C            1.36217834        2.10429451       -3.15824562
 C            1.56874018        0.89244027       -3.93055198
 C            0.04301910        2.60583968       -3.49852688
 C           -0.15756667       -0.84821308       -4.12367650
 C           -1.44529264       -1.07578551       -3.48291420
 C           -2.30131714       -0.00919328       -3.19412255
 C           -1.90594191        1.29749369       -3.48391903
 C            0.26268801        0.44785251       -4.39447570
 C           -0.66557118        1.54337263       -4.19527649
