   70
C70 / DATE: 7/ 1/2024 / Origin: Program Fullerene / C70 from database
 C            1.58678468        0.01072869        4.73039621
 C            0.76855989       -1.17573625        4.56395135
 C            1.39250306       -2.01302781        3.55751833
 C            2.64384219       -0.03576573        3.73377621
 C            2.52601901       -1.27729012        3.01244518
 C            2.59021863        1.18709940        2.97458236
 C            0.75379774        1.16246754        4.43283805
 C            1.44861210        1.95875128        3.44730193
 C           -0.59634697       -0.74707867        4.34647081
 C           -0.57131732        0.68712517        4.10052659
 C           -1.40353614       -1.53701933        3.54751523
 C            0.58560683       -2.73571099        2.67867352
 C           -0.80502046       -2.62063597        2.77198165
 C            1.15195709       -3.15245672        1.47686839
 C            2.71682621       -1.28811341        1.63515679
 C            2.31905596       -2.44167692        0.98026744
 C            2.82748356        1.15175805        1.60239137
 C            2.77670440       -0.07748653        0.91636129
 C            2.52688202        2.31897442        0.91533766
 C            0.70664518        2.64692704        2.49573065
 C            1.42229603        3.12672845        1.40550334
 C           -1.18957012        1.19686604        2.95923316
 C           -0.64772085        2.32212314        2.32429771
 C           -2.37076051       -0.88850941        2.68574097
 C           -2.18118065        0.44292244        2.31992230
 C           -1.63147192       -2.80484079        1.58386835
 C           -2.72970349       -1.85560896        1.67000963
 C            0.30216679       -3.44478092        0.33325462
 C           -1.02632137       -3.05358052        0.35270217
 C            2.27441867       -2.46509586       -0.45927217
 C            1.09132039       -3.21175313       -0.85772277
 C            2.66872459       -0.09595933       -0.49183875
 C            2.60606811       -1.32238323       -1.17108904
 C            2.45852109        2.31009264       -0.52562431
 C            2.49440050        1.10137358       -1.20482332
 C            0.72323827        3.67537443        0.26098956
 C            1.48745755        3.31582386       -0.92190344
 C           -1.36664507        2.91771237        1.29153197
 C           -0.66227900        3.62123858        0.23097664
 C           -2.79000329        0.92313078        1.15667588
 C           -2.46819703        2.19107964        0.68639319
 C           -3.30773748       -1.39864669        0.50193675
 C           -3.43809949        0.03564460        0.29698781
 C           -1.62675406       -2.59816939       -0.82482946
 C           -2.86804686       -1.96574022       -0.75625286
 C            0.46605813       -2.84887162       -2.04206013
 C           -0.91207159       -2.58067722       -2.03197832
 C            2.32620747       -1.34503485       -2.53409746
 C            1.28034203       -2.24321984       -2.99607947
 C            2.07969248        1.07761747       -2.53782450
 C            2.17269901       -0.10226080       -3.25713560
 C            0.84004278        3.16614185       -2.13798439
 C            1.27679973        2.10744165       -3.02999658
 C           -1.34719506        3.35186346       -1.02366749
 C           -2.43506643        2.43110544       -0.74980793
 C           -0.61576688        3.20553102       -2.19282054
 C           -3.39441505        0.27295601       -1.13937653
 C           -3.24551092       -1.01991085       -1.78766031
 C           -2.69950828        1.37859892       -1.62486074
 C           -1.53240374       -2.05413102       -3.17045497
 C           -2.60329793       -1.08762675       -3.00831003
 C            0.70451123       -1.68186012       -4.19803789
 C            1.24626382       -0.34188544       -4.35567200
 C           -0.73386741       -1.60063964       -4.29470037
 C            0.14807289        1.78795721       -3.88620080
 C           -1.04458188        2.22665217       -3.17802708
 C           -2.03595067        1.29894160       -2.85572918
 C           -2.15588916        0.14478986       -3.62971622
 C            0.13400845        0.57178620       -4.55321237
 C           -1.08857152       -0.21213992       -4.55134802
