   70
C70 / DATE: 7/ 1/2024 / Origin: Program Fullerene / C70 from database
 C            1.55361378        0.08158370        4.69749747
 C            0.77810253       -1.13569339        4.54688254
 C            1.42756875       -1.96196074        3.54303559
 C            2.67916668       -0.00086505        3.78551560
 C            2.70597855       -1.34011683        3.23064668
 C            2.60157926        1.11995229        2.86475178
 C            0.71661339        1.18612726        4.26649187
 C            1.37966238        1.84829970        3.15920524
 C           -0.60277310       -0.75297424        4.33057483
 C           -0.62497077        0.67575640        4.05157031
 C           -1.38706073       -1.58146859        3.54784113
 C            0.65033807       -2.51076888        2.51829601
 C           -0.73344261       -2.55455072        2.67888386
 C            1.20534201       -2.68997292        1.24559969
 C            3.22205651       -1.49824277        1.95703296
 C            2.55796152       -2.41337905        1.05418504
 C            2.94977473        0.91023327        1.53231020
 C            3.52322743       -0.30862040        1.17307522
 C            2.34030798        1.68005926        0.54158716
 C            0.60420685        2.28773791        2.09632367
 C            1.20303940        2.43618375        0.84834412
 C           -1.33883093        1.14044072        2.94729780
 C           -0.78212951        2.15550785        2.16680698
 C           -2.45381203       -0.98668306        2.76999000
 C           -2.37528940        0.36086484        2.42157609
 C           -1.58261369       -2.72883305        1.51365476
 C           -2.79014795       -1.95517888        1.74832157
 C            0.37596267       -2.87664455        0.12995418
 C           -1.00514551       -2.72326904        0.24857801
 C            0.93704048       -2.97069792       -1.14102994
 C            3.03868778       -2.08676859       -0.27346562
 C            3.51707335       -0.71341249       -0.22455055
 C            2.29035331       -2.48845466       -1.36424156
 C            2.67902139        1.46210595       -0.79135073
 C            3.08382035        0.18594888       -1.19387743
 C            2.23604636        2.37400482       -1.73832538
 C            0.48807042        3.06844774       -0.17214469
 C            1.03310379        3.13198333       -1.45140495
 C           -1.54997583        2.72241595        1.16167001
 C           -0.88851859        3.22900060       -0.03035252
 C           -3.07786619        0.80747942        1.29749460
 C           -2.76676523        2.05016710        0.74632574
 C           -3.51863053       -1.52212352        0.65769880
 C           -3.83062155       -0.10708828        0.55888933
 C           -1.76756065       -2.32379015       -0.85647976
 C           -3.09173171       -1.93800428       -0.66376155
 C            0.13777129       -2.59321400       -2.29559521
 C           -1.15011914       -2.10504521       -2.09494226
 C            2.25510165       -1.63489018       -2.53641463
 C            2.68366215       -0.31160099       -2.43799402
 C            1.02151770       -1.93399188       -3.24210695
 C            2.19102587        1.97906334       -3.13245772
 C            2.34559671        0.57543981       -3.45464569
 C            0.14750753        2.99239215       -2.59692025
 C            0.92246487        2.43003772       -3.68402995
 C           -1.75267833        2.96390709       -1.17029458
 C           -2.94108427        2.29096519       -0.68100510
 C           -1.17164396        2.59097426       -2.38105177
 C           -4.11710491        0.15686654       -0.84072350
 C           -3.69145233       -1.01196029       -1.59718785
 C           -3.54481367        1.33115591       -1.47173842
 C           -1.71011293       -1.21273068       -3.02404857
 C           -1.73936360        1.55604227       -3.14752052
 C           -2.89320112       -0.55283663       -2.70983939
 C           -2.88358827        0.90184801       -2.69045906
 C            0.49980896       -0.98464200       -4.10503199
 C            1.27480213        0.21735034       -4.36975090
 C            0.35453020        1.34133427       -4.44100593
 C           -0.89000216       -0.58971075       -3.96144434
 C           -0.95845757        0.85850701       -4.07071557
