   70
C70 / DATE: 7/ 1/2024 / Origin: Program Fullerene / C70 from database
 C            1.40702384        0.17087798        5.04345985
 C            0.62088018       -1.04672394        5.09397134
 C            1.44112265       -2.11951950        4.56308401
 C            2.59029150       -0.10189321        4.24265871
 C            2.63617971       -1.52132621        3.98324693
 C            2.56948878        0.80059342        3.11161395
 C            0.62396972        1.17456114        4.34245912
 C            1.44133019        1.69659560        3.27257769
 C           -0.66404520       -0.77445065        4.47265685
 C           -0.65318459        0.59652060        3.98327920
 C           -1.25745852       -1.75451952        3.69183760
 C            0.87034380       -3.00760774        3.56531395
 C           -0.48712832       -2.92191998        3.27032880
 C            2.72747891       -1.97301415        2.60627981
 C            1.82952045       -3.10411625        2.47656256
 C            2.83316475        0.32809864        1.82637426
 C            2.80560093       -1.04914883        1.55939593
 C            2.56530208        1.19952573        0.77666582
 C            0.81578993        2.11575896        2.10938727
 C            1.60304478        2.19385657        0.97204124
 C           -1.16930444        0.87837928        2.71668597
 C           -0.54250957        1.84844535        1.92493630
 C           -2.08152812       -1.34758590        2.57021845
 C           -2.04508476       -0.02794162        2.11534220
 C           -0.95260980       -3.30242267        1.94577154
 C           -2.04668199       -2.41696351        1.59220903
 C            1.38849964       -3.45036162        1.20824415
 C           -0.03261401       -3.65718911        0.97018515
 C            2.53618885       -1.48935743        0.25464454
 C            1.91041764       -2.72147228        0.06517415
 C            2.80716460        0.76464987       -0.51678127
 C            2.55098548       -0.57659452       -0.80472909
 C            2.71635287        1.71071749       -1.52878950
 C            1.06265682        2.82535937       -0.14018282
 C            1.81870528        2.82809269       -1.30762958
 C           -1.09933028        2.17704083        0.68775789
 C           -0.32813636        2.91031337       -0.21793190
 C           -2.51620908        0.23401689        0.82669128
 C           -2.19164222        1.44701832        0.21352157
 C           -2.26107343       -2.07114805        0.26699502
 C           -2.88218991       -0.85093982        0.02915771
 C           -0.29954574       -3.30023759       -0.41298336
 C            0.94450314       -2.86087117       -1.00873286
 C           -1.45672115       -2.60857385       -0.74491869
 C            1.90278456       -0.91769599       -2.00129268
 C            0.89333044       -1.87362767       -1.98124892
 C            2.52806327        1.25910739       -2.88927993
 C            1.97275218       -0.06067344       -3.08967047
 C            1.19792164        3.17080664       -2.57370375
 C            1.67144856        2.21810952       -3.56435898
 C           -0.92996733        3.38435035       -1.37716144
 C           -0.13758599        3.54712415       -2.58790885
 C           -2.71474624        1.73638701       -1.05237162
 C           -2.21770573        2.83517804       -1.75739687
 C           -3.34372713       -0.61532035       -1.25345357
 C           -3.44894750        0.75194671       -1.71520738
 C           -1.52186813       -2.01600794       -2.00560795
 C           -0.32565285       -1.59164395       -2.60973892
 C           -2.70734363       -1.36407324       -2.31701949
 C            0.80693314        0.07255123       -3.94884854
 C            0.69944773        1.47292586       -4.34324091
 C           -0.34762020       -0.65611608       -3.65718306
 C           -0.96675659        3.15654530       -3.71755818
 C           -2.29942851        2.88156695       -3.21016048
 C           -0.55908966        2.02634934       -4.54112108
 C           -3.44381294        0.67835397       -3.16732648
 C           -2.78967374       -0.57159503       -3.52153214
 C           -1.56090643       -0.23770212       -4.20247306
 C           -2.80859380        1.73247216       -3.92672264
 C           -1.69826415        1.13615821       -4.65646339
