   70
C70 / DATE: 7/ 1/2024 / Origin: Program Fullerene / C70 from database
 C            1.42689574       -0.29496544        5.65054906
 C            0.63875282       -1.48438206        5.37056559
 C            1.29583368       -2.21360273        4.30320203
 C            2.57165471       -0.29651988        4.75594556
 C            2.44287275       -1.43751705        3.86972130
 C            2.66284956        1.02190023        4.16772184
 C            0.62192336        0.86527913        5.30894508
 C            1.44812242        1.74575499        4.51227713
 C           -0.64678696       -1.05602376        4.85416597
 C           -0.62484932        0.39046957        4.73978778
 C            0.28855257       -2.54870540        3.30504168
 C           -0.92330378       -1.82654414        3.64874152
 C            0.67337726       -2.56449808        1.96771430
 C            2.61402121       -1.27281802        2.49947924
 C            1.98225154       -2.19234204        1.66521873
 C            2.82880767        1.12517273        2.73035851
 C            2.96580198       -0.02303893        1.96310276
 C            0.90056501        2.27421149        3.27728903
 C            1.91352843        2.13916406        2.25275782
 C           -1.09693300        0.93844396        3.55199347
 C           -0.40972963        1.98837616        2.92049740
 C           -1.61615457       -1.20014342        2.61707715
 C           -1.94148831        0.14573117        2.77806460
 C           -0.30900485       -2.39208284        0.98553341
 C           -1.47482911       -1.69730771        1.31619075
 C            0.06083470       -2.52290254       -0.35521496
 C            2.37700423       -2.22355217        0.34225390
 C            1.41100505       -2.64245981       -0.65192965
 C            2.89480147        0.12812138        0.57978438
 C            3.00342965       -1.02700994       -0.17707180
 C            1.49187483        2.06239700        0.92741784
 C            2.17485443        1.21419528        0.05393247
 C           -0.80298007        2.33158122        1.62856281
 C            0.17398806        2.40656569        0.62141864
 C           -2.64545596        0.76915844        1.76672211
 C           -2.10372403        2.01616228        1.27140046
 C           -2.25874750       -1.14075436        0.30266262
 C           -3.00621351       -0.01040811        0.60086571
 C           -0.80492092       -2.10549466       -1.36769612
 C           -1.97190542       -1.41023788       -1.03673987
 C           -0.36186355       -2.12068046       -2.69804820
 C            1.89362474       -2.12418582       -1.91134571
 C            2.71517958       -0.96940257       -1.58831488
 C            1.00810884       -1.98040245       -2.96541087
 C            1.81203232        1.21638871       -1.29936433
 C            2.35836208        0.24741753       -2.14813288
 C           -0.21625480        2.42508531       -0.72411347
 C            0.65970980        1.91424269       -1.69545967
 C           -2.50019772        2.13823814       -0.10916382
 C           -3.26341623        0.94868476       -0.44874004
 C           -1.57091876        2.58876887       -1.03375018
 C           -2.68443244       -0.73682572       -2.03935521
 C           -3.21229633        0.53437549       -1.76843928
 C           -1.28438297       -1.85018373       -3.70985094
 C           -2.49687523       -1.12775837       -3.36599234
 C           -0.81052297       -1.33904112       -4.98854208
 C            1.40332407       -1.06804563       -3.93638384
 C            1.94084819        0.19857043       -3.47103981
 C            0.52640250       -0.79598125       -5.04950334
 C            0.29765397        1.95023939       -3.04769683
 C            1.04667351        1.21901485       -3.96759432
 C            0.41419622        0.65128110       -5.15255811
 C           -1.97000797        2.52891741       -2.36189111
 C           -2.99396944        1.55213013       -2.68925708
 C           -0.96742996        2.41915954       -3.39639768
 C           -2.76413128       -0.17497900       -4.43448884
 C           -1.71452643       -0.29368481       -5.42826615
 C           -0.97009242        0.95943548       -5.43618699
 C           -2.86312545        1.22368999       -4.08820054
 C           -1.65824801        1.88615731       -4.56482168
