   70
C70 / DATE: 7/ 1/2024 / Origin: Program Fullerene / C70 from database
 C            1.38544926       -0.04604493        4.20509542
 C            2.59820962       -0.17413435        3.41711754
 C            2.62526397       -1.53759982        2.90348320
 C            0.54617562       -1.19693581        3.91537938
 C            1.28145821       -2.07572850        3.02828475
 C           -0.74404555       -0.70744113        3.48315616
 C            0.57745726        1.14677364        4.05419316
 C           -0.74276565        0.74037116        3.58621281
 C            1.16513638        2.27383308        3.50628016
 C            3.01379102        0.88932131        2.60924726
 C            2.37769992        2.12717818        2.70829803
 C            3.76082284        0.62778390        1.46231683
 C            3.35371181       -1.81885330        1.75903501
 C            4.08554532       -0.74349784        1.11744358
 C            2.74381407       -2.62427265        0.71337224
 C            0.64589622       -2.58624002        1.89837743
 C            1.42740354       -3.06826827        0.84566722
 C           -1.34164315       -1.27688372        2.37454152
 C           -0.71836853       -2.32887676        1.69623404
 C           -2.31578133       -0.54256467        1.71951365
 C           -1.39998789        1.49497720        2.60626950
 C           -2.17394526        0.84326581        1.63653648
 C            0.31141462        3.23510437        2.83772251
 C           -1.00488931        2.80865132        2.39252441
 C            2.20730621        2.91865949        1.50033522
 C            1.02711141        3.73125599        1.67435675
 C            3.43253181        1.33178386        0.22904016
 C            2.45955972        2.32436573        0.26571388
 C            3.93309577       -0.88719211       -0.32042320
 C            3.16962886       -2.09181273       -0.57183143
 C            3.42358943        0.36174973       -0.84584132
 C            2.25070253       -2.10035580       -1.61468667
 C            0.79943163       -3.55290949       -0.29552245
 C            1.28576995       -3.10158509       -1.58892411
 C           -1.38601884       -2.91188039        0.61532997
 C           -0.64885385       -3.57913598       -0.35943307
 C           -3.13691613       -1.20945253        0.83215513
 C           -2.68412826       -2.49119316        0.32044251
 C           -3.73879789       -0.47414086       -0.25872636
 C           -2.58605424        1.52122697        0.47389621
 C           -3.33891768        0.83717725       -0.49762314
 C           -1.21684232        3.40255021        1.09206869
 C            0.08585454        3.80301798        0.58546907
 C           -2.08734448        2.80371249        0.19282430
 C            1.49901271        2.39895333       -0.75984775
 C            0.45931448        3.33915050       -0.66985653
 C            2.33308944        0.31809695       -1.69763267
 C            1.96110624       -0.89929124       -2.27272270
 C            1.46508376        1.40878629       -1.75938694
 C            1.01609704       -0.89245433       -3.29127967
 C            0.15826924       -3.04637330       -2.50152495
 C           -1.02277381       -3.46630716       -1.76394880
 C            0.07342506       -1.99465912       -3.40230517
 C           -3.19404596       -2.62827196       -1.03242733
 C           -3.87230663       -1.39070025       -1.38057262
 C           -2.26797089       -2.95143550       -2.09982965
 C           -1.22633514       -1.44359255       -3.75043764
 C           -3.40127206       -0.96998976       -2.68737416
 C           -2.37258932       -1.90976012       -3.11220674
 C           -3.39736870        1.31474957       -1.80845528
 C           -3.23125173        0.38865283       -2.91824417
 C           -1.91440599        3.17636031       -1.13405473
 C           -0.55233052        3.32229117       -1.62027323
 C           -2.68511772        2.52001838       -2.15966224
 C            0.51659640        1.46273107       -2.78369796
 C            0.30094964        0.33777305       -3.57987285
 C           -1.05372200       -0.01880357       -3.98118281
 C           -2.09642809        0.85383749       -3.70234555
 C           -0.42690703        2.47957912       -2.78771375
 C           -1.77664964        2.19489905       -3.24806652
