   70
C70 / DATE: 7/ 1/2024 / Origin: Program Fullerene / C70 from database
 C            1.16169702        0.01527012        4.30645545
 C            2.41439102       -0.25014649        3.63860009
 C            2.38640523       -1.63777804        3.20602405
 C            0.33297320       -1.17556664        4.18006180
 C            1.01514511       -2.08744169        3.29087079
 C           -1.00094226       -0.74164309        3.82908184
 C            0.36459021        1.13745903        3.85749203
 C           -1.02145424        0.71068926        3.89099876
 C            0.79176109        1.91779884        2.78700679
 C            2.76609707        0.55126577        2.48181294
 C            1.86047240        1.48771626        1.98690624
 C            3.03623340       -1.69818175        1.91455984
 C            3.42357107       -0.34239557        1.55102291
 C            2.49520914       -2.50774736        0.92103023
 C            0.38717407       -2.49312237        2.11840809
 C            1.17440263       -2.95894547        1.06036899
 C           -1.67358187       -1.36478179        2.78545394
 C           -0.96617577       -2.19097041        1.89622314
 C           -2.85455455       -0.76217554        2.36167529
 C           -1.95212569        1.39235014        3.11103860
 C           -3.02676611        0.66321315        2.60323530
 C           -0.12556622        2.81826920        2.26714071
 C           -1.54708557        2.56836457        2.47147365
 C            0.05013002        3.32365144        0.92160415
 C            1.89321646        1.80029551        0.62115141
 C            1.01866631        2.76074889        0.09875352
 C            3.44457313       -0.01212942        0.20258100
 C            2.82599770        1.16885395       -0.21411329
 C            3.03115130       -2.35500357       -0.35330424
 C            3.58000813       -1.05785359       -0.70764514
 C            2.32903458       -2.87731136       -1.51094227
 C            0.54689527       -3.60424343       -0.00008626
 C            1.15275414       -3.58225650       -1.32224301
 C           -1.55502533       -2.55660858        0.68198667
 C           -0.88524863       -3.43552601       -0.16171627
 C           -3.37492148       -1.05141363        1.03943234
 C           -2.58832912       -1.77960413        0.16150591
 C           -3.82913101        1.20447058        1.52212619
 C           -4.04719775        0.14021845        0.55497656
 C           -2.25625297        3.06444110        1.29882112
 C           -1.26795594        3.60733423        0.37968484
 C           -3.35142785        2.36828449        0.80317987
 C           -1.46470236        3.49589870       -0.98911499
 C            0.92098520        2.94565714       -1.28143765
 C           -0.31343707        3.27001505       -1.84646133
 C            2.88784260        1.51376416       -1.56181812
 C            1.91442682        2.43954097       -2.10876305
 C            3.31520393       -0.82781144       -2.11525133
 C            2.41685303       -1.88188429       -2.57411564
 C            3.12033185        0.47175003       -2.55214571
 C            1.29301441       -1.56508180       -3.34654573
 C            0.09249611       -3.44184258       -2.29887474
 C           -1.16978774       -3.38428598       -1.58364264
 C            0.13229225       -2.32436140       -3.22477493
 C           -2.57760846       -1.43163031       -1.19194403
 C           -1.92415706       -2.25526992       -2.09436520
 C           -1.15137401       -1.64173910       -3.15842084
 C           -3.69180577        0.64858409       -0.75622364
 C           -3.43571394        2.07092661       -0.61846382
 C           -2.55377617        2.67436947       -1.50133171
 C           -2.86205727       -0.12026377       -1.56843576
 C           -0.78308680        2.52459227       -3.00320919
 C           -1.18910968       -0.25809847       -3.31727670
 C           -2.02236914        1.89059361       -2.60414519
 C           -2.09048262        0.49868420       -2.55847907
 C            1.54318315        1.96349842       -3.43089972
 C            2.20886874        0.69429018       -3.65413331
 C            1.19135168       -0.30409917       -3.92852807
 C            0.13446650        1.78985423       -3.73416075
 C           -0.10065552        0.36650053       -3.92973172
