   70
C70 / DATE: 7/ 1/2024 / Origin: Program Fullerene / C70 from database
 C            1.38209882        0.04119596        4.53381048
 C            0.63485443       -1.15689331        4.20297216
 C            1.45985985       -1.97707205        3.34213170
 C            2.60236545        0.02868322        3.74662336
 C            2.61639713       -1.17865055        2.95499415
 C            2.68228603        1.28742894        3.05209951
 C            0.59474291        1.18440963        4.10385778
 C            1.43323148        2.00324726        3.26409477
 C           -0.65944256       -0.75300505        3.70008163
 C           -0.63924281        0.69180486        3.54324521
 C           -1.22480328       -1.50696397        2.68037896
 C            0.83168904       -2.73840371        2.36380638
 C           -0.55976746       -2.64939361        2.22611004
 C            1.59233251       -3.10571028        1.25949910
 C            2.96241403       -1.10735245        1.60503174
 C            2.64000054       -2.20465261        0.80764525
 C            3.21432159        1.32064812        1.77245486
 C            3.20784289        0.14103815        0.99963185
 C            3.06496971        2.53701751        1.12273304
 C            0.87435285        2.65146654        2.16500052
 C            1.78649420        3.21395330        1.27972912
 C           -1.09851811        1.22529849        2.34426658
 C           -0.36769145        2.21527902        1.66922179
 C           -2.13676034       -0.88508039        1.83205259
 C           -2.04551955        0.49756467        1.63648737
 C           -2.87611360       -1.67062822        0.94768219
 C           -1.19211329       -3.43491136        1.26542952
 C           -2.45475317       -2.97747320        0.70313772
 C            0.93525953       -3.65322776        0.08781083
 C           -0.40404779       -3.99484383        0.17575750
 C            2.47874628       -2.03329694       -0.62362633
 C            1.38800557       -2.88622306       -1.06353243
 C            3.21034936        0.22982734       -0.40393814
 C            2.59335887       -0.76565378       -1.15856751
 C            3.46333366        2.64756812       -0.25759809
 C            3.54036027        1.42926024       -1.02770402
 C            1.35169453        3.63279767       -0.03428366
 C            2.50585840        3.52086538       -0.91164570
 C           -0.78668245        2.59575099        0.38321077
 C            0.10371373        3.23062797       -0.49768001
 C           -2.66525608        1.08580675        0.54519678
 C           -2.02855500        2.15831525       -0.09358482
 C           -3.74006329       -1.05058390        0.04401084
 C           -3.71138444        0.39706341       -0.06262417
 C           -3.87150686       -1.58708525       -1.30748109
 C           -2.53754640       -3.49957048       -0.64715983
 C           -1.20595580       -3.92337209       -1.03113938
 C           -3.03551636       -2.62464691       -1.68630425
 C            0.45237310       -2.39383861       -1.97513256
 C           -0.76279085       -3.05286925       -2.10632346
 C           -1.92067411       -2.32230751       -2.58039945
 C            1.79472761       -0.42025341       -2.24797682
 C            0.59188732       -1.09238281       -2.46208936
 C            2.97327391        1.71695979       -2.33384616
 C            2.30737911        3.00876386       -2.24928888
 C            2.02783559        0.77268171       -2.90761310
 C           -0.11302058        3.16670578       -1.88037302
 C            0.94976588        2.81737068       -2.70884715
 C            0.88862135        1.53010921       -3.37802064
 C           -2.41224861        2.54452293       -1.37528563
 C           -1.37479519        2.82738543       -2.34024574
 C           -4.12745894        0.73881850       -1.40453747
 C           -3.99307740       -0.46189923       -2.21044052
 C           -3.42797426        1.79755675       -2.09267363
 C           -1.76801026       -1.02215242       -3.05931799
 C           -0.49591949       -0.42344487       -3.05318184
 C           -0.35812487        0.91716427       -3.45493033
 C           -1.45148905        1.76699728       -3.33034123
 C           -2.91164756       -0.22601931       -3.14655496
 C           -2.77832627        1.20790717       -3.25590671
