   70
C70 / DATE: 7/ 1/2024 / Origin: Program Fullerene / C70 from database
 C            1.50499476        0.08617545        5.00047460
 C            0.73846875       -1.14337910        5.04219116
 C            1.63536615       -2.20590841        4.63937461
 C            2.67650498       -0.16133857        4.17326550
 C            2.76840520       -1.58734587        3.96261820
 C            2.58088265        0.70344576        3.01379414
 C            0.69733745        1.08163993        4.32185667
 C            1.49854921        1.63650347        3.25272552
 C           -0.49034062       -0.93096322        4.28636297
 C           -0.56893772        0.47899537        3.95367440
 C           -0.89258758       -1.86393155        3.33361527
 C            1.11989174       -3.23113108        3.76074544
 C           -0.22449088       -3.08941478        3.23176583
 C            2.78579656       -2.08827476        2.60029522
 C            2.00382519       -3.30418921        2.60742102
 C            2.70640721        0.17764669        1.72637138
 C            2.62974237       -1.20786514        1.52842087
 C            2.35608810        1.01497254        0.66594057
 C            0.83418982        2.10629602        2.13343422
 C            1.53240159        2.10733374        0.93441743
 C           -1.11636603        0.84908855        2.72996867
 C           -0.54589084        1.92822916        2.05572522
 C           -1.71791656       -1.45004330        2.28152843
 C           -1.84062745       -0.08475797        1.98689147
 C           -2.10642307       -2.39334014        1.33599431
 C           -0.18865750       -3.75582487        1.94780530
 C            1.16810307       -3.58594641        1.45657531
 C           -1.22044978       -3.51319145        1.06237919
 C            2.13831891       -1.69728323        0.31209149
 C            1.35010544       -2.85425420        0.28590155
 C            2.36622787        0.50333144       -0.62662864
 C            2.14168791       -0.86369563       -0.80424492
 C            2.12200257        1.37551909       -1.68743299
 C            0.93871561        2.76708054       -0.13255533
 C            1.45441605        2.57531739       -1.41154004
 C           -1.17403799        2.39175076        0.90677145
 C           -0.40077424        3.12329747        0.00917588
 C           -2.40338368        0.33635754        0.77398266
 C           -2.26504807        1.67821646        0.41191423
 C           -2.64052168       -1.95479744        0.05845887
 C           -2.78555984       -0.59731667       -0.19840254
 C           -0.89291939       -3.41539821       -0.34440136
 C            0.38299295       -2.98269381       -0.71048019
 C           -2.04500971       -2.79902181       -0.96437744
 C            1.54466421       -1.31244404       -1.98299620
 C            0.53660295       -2.27558393       -1.90250422
 C            2.10397663        0.83989900       -2.97233305
 C            1.67038116       -0.53339576       -3.13085395
 C            1.55900227        1.60263862       -4.07775800
 C            0.97155157        3.38233205       -2.44142300
 C            1.00128797        2.90968825       -3.81038387
 C           -1.04174433        3.78683675       -1.02712076
 C           -0.30453139        4.04866226       -2.25071378
 C           -2.87580217        2.12594421       -0.75628205
 C           -2.36659273        3.33054817       -1.39584301
 C           -2.95767098       -0.18752220       -1.52502153
 C           -3.15076359        1.15939330       -1.80125078
 C           -1.89104452       -2.28292281       -2.23639524
 C           -0.54754796       -2.21098878       -2.77861139
 C           -2.53161291       -1.02161021       -2.55667724
 C            0.60590293       -0.53927600       -4.12274675
 C            0.51344832        0.79496202       -4.68420742
 C           -0.56707494       -1.21024451       -3.82720547
 C           -1.80367011       -0.45020375       -3.67895509
 C           -0.37045217        2.90965870       -4.29578427
 C           -1.16202533        3.69555123       -3.37215537
 C           -2.37439294        3.11474203       -2.83260072
 C           -2.64660283        1.70576298       -3.05504998
 C           -0.73443226        1.52487931       -4.54326730
 C           -1.79233634        0.93280257       -3.84572517
