   70
C70 / DATE: 7/ 1/2024 / Origin: Program Fullerene / C70 from database
 C            1.25361835       -0.11742590        4.59894809
 C            2.56284631       -0.31472513        4.00726130
 C            2.52304437       -1.54866139        3.24311196
 C            0.42492934       -1.25752019        4.23807641
 C            1.17678128       -2.08980153        3.32902685
 C           -0.85657784       -0.75837089        3.79641956
 C            0.51306371        1.09303678        4.28227428
 C           -0.80371156        0.69526093        3.81564747
 C            1.15818149        2.14909905        3.65349793
 C            3.10256092        0.72249018        3.14941691
 C            2.53018686        1.98733035        3.17926367
 C            3.07225772       -1.28321798        1.92220802
 C            3.42740167        0.12140579        1.86003433
 C            2.44861942       -1.86117911        0.82622903
 C            0.57491266       -2.51244942        2.15068927
 C            1.40268933       -2.74725660        1.06067540
 C           -1.49835023       -1.37236066        2.72581530
 C           -0.78856485       -2.27303019        1.91713038
 C           -2.56694951       -0.67967323        2.17679127
 C           -1.42628556        1.39061750        2.77898408
 C           -2.51685860        0.77560616        2.18293461
 C            0.43499992        2.90648629        2.64738600
 C           -0.70622752        2.35493704        2.06308827
 C            2.68567340        2.83364849        2.01481436
 C            1.42767674        3.53240325        1.80739136
 C            3.19044646        0.83448668        0.68378996
 C            3.05278650        2.21705100        0.75147895
 C            2.51387197       -1.22079016       -0.41021087
 C            2.74266861        0.16196356       -0.45931945
 C            2.01381113       -1.89278777       -1.52846304
 C            0.87778874       -3.43999625       -0.01193574
 C            1.35124592       -3.10491028       -1.34019747
 C           -1.33817517       -2.70959816        0.70088638
 C           -0.56426508       -3.55474853       -0.09273106
 C           -3.11531020       -1.09465230        0.90427210
 C           -2.42947820       -2.02961734        0.13699651
 C           -2.97332113        1.23020957        0.88997114
 C           -3.63948230        0.10026287        0.26870464
 C           -0.99687082        2.60254180        0.70434024
 C           -2.14458900        2.03998728        0.12135364
 C            1.18649267        3.56887737        0.38778754
 C            2.29396362        2.89794274       -0.27508986
 C           -0.09284751        3.32675918       -0.09220411
 C            2.37426894        0.89593685       -1.59459532
 C            2.02365833        2.24391058       -1.46963013
 C            1.88451075       -1.21894836       -2.73909182
 C            2.05658986        0.22081043       -2.77043164
 C            0.80639975       -1.56404871       -3.65927656
 C            0.31184338       -3.51206752       -2.26702633
 C           -0.89782320       -3.74242023       -1.48844531
 C           -0.02710827       -2.63775702       -3.37270909
 C           -2.68976731       -2.09250131       -1.24086595
 C           -1.94837932       -2.93637340       -2.06246538
 C           -1.46802214       -2.44375690       -3.34555328
 C           -3.79682287        0.10142306       -1.10256099
 C           -3.47201167       -1.10569169       -1.84033500
 C           -2.32919136        2.06873868       -1.26626987
 C           -3.26273713        1.21814956       -1.85984122
 C           -0.19851433        3.24616826       -1.47280477
 C            0.94509362        2.72686102       -2.20494793
 C           -1.39086597        2.69738610       -2.07321397
 C            1.04932351        0.77093173       -3.66600262
 C            0.23864283       -0.32689401       -4.16844640
 C            0.44923890        1.97905501       -3.34409857
 C           -1.00086333        2.09046401       -3.33892361
 C           -2.01747398       -1.27906993       -3.86722193
 C           -3.17518462       -0.70400331       -3.20526688
 C           -3.03093881        0.74267319       -3.21481254
 C           -1.14351930       -0.18420916       -4.26589024
 C           -1.77500031        1.06560221       -3.86581827
