   70
C70 / DATE: 7/ 1/2024 / Origin: Program Fullerene / C70 from database
 C            1.28104472        0.04892783        4.95697344
 C            2.53021999        0.08364664        4.21831379
 C            2.60737760       -1.13714834        3.43532689
 C            0.50165222       -1.07205647        4.45369354
 C            1.30951537       -1.77828881        3.47445052
 C           -0.79367916       -0.56703983        4.04058830
 C            0.42773262        1.22118446        4.95386654
 C           -0.87724160        0.82223267        4.44866788
 C            0.84650865        2.39668543        4.21218589
 C            2.81329554        1.19817212        3.32419526
 C            1.99634452        2.32048273        3.32122372
 C            3.15312715       -0.79763281        2.13712673
 C            3.26505137        0.64626248        2.05902264
 C            2.66945893       -1.45602066        1.01609872
 C            0.72784322       -2.14704992        2.26535877
 C            1.53700251       -2.27120067        1.13685737
 C           -1.26940779       -0.91666784        2.78318254
 C           -0.63683933       -1.94015831        2.07853560
 C           -2.04717913       -0.00263431        2.07339088
 C           -1.29856472        1.80462927        3.46494930
 C           -0.28952149        2.84254073        3.42478255
 C           -1.82515968        1.36023390        2.25605180
 C            1.61316588        2.91560947        2.05301466
 C            0.20454986        3.25306516        2.12639828
 C            2.91962657        1.25965471        0.85516119
 C            2.09375903        2.39424614        0.85215461
 C            2.94689015       -0.89212403       -0.22352576
 C            3.03075531        0.50294110       -0.31602526
 C            2.66916297       -1.65838946       -1.34755711
 C            0.97340049       -2.81114348       -0.02048202
 C            1.69291833       -2.72137331       -1.21154846
 C           -1.21224004       -2.35995120        0.88406658
 C           -0.41063576       -2.99365881       -0.06814616
 C           -2.62048561       -0.42532335        0.87893736
 C           -2.38919580       -1.73789839        0.47486206
 C           -2.97478393        0.52892840       -0.07748067
 C           -1.69180685        2.16448236        1.12509669
 C           -0.56777507        2.99123964        1.00431609
 C           -2.37589726        1.79006571       -0.03267602
 C            1.41077750        2.72849323       -0.32192732
 C            0.05721007        3.07769591       -0.23404799
 C            2.79889632        1.13764355       -1.53218937
 C            1.94657032        2.30857828       -1.53529806
 C            2.46503576       -1.02375307       -2.63644410
 C            2.50089512        0.35937653       -2.72241036
 C            1.01381182       -2.86987191       -2.48800446
 C            1.43777424       -1.77222126       -3.34527788
 C           -0.99985295       -3.46857158       -1.23851484
 C           -0.30840542       -3.29044780       -2.50347685
 C           -3.07928162       -2.24311772       -0.61840428
 C           -2.41040532       -3.20796252       -1.46937147
 C           -3.60484639        0.11011524       -1.24799141
 C           -3.78973955       -1.31306076       -1.47438789
 C           -3.21967812        0.70899072       -2.51406833
 C           -2.06637440        2.44306460       -1.22523014
 C           -0.75449054        3.04496391       -1.36002224
 C           -2.41316930        1.83803679       -2.50047256
 C            1.11738435        2.26002197       -2.72745310
 C            1.47948937        1.06774273       -3.47792947
 C           -0.21004913        2.65122350       -2.64618571
 C           -1.23619338        1.90121457       -3.35501228
 C            0.50378764       -1.10006181       -4.12649076
 C            0.50187621        0.35429855       -4.16395436
 C           -0.88161259        0.80316724       -4.13153472
 C           -1.24608173       -2.69069242       -3.44000532
 C           -2.56963248       -2.77548528       -2.84901175
 C           -3.42364934       -1.60225877       -2.85211800
 C           -2.93473795       -0.37085774       -3.44614447
 C           -0.87838514       -1.55258079       -4.15245418
 C           -1.73691313       -0.37315485       -4.15557506
