   70
C70 / DATE: 7/ 1/2024 / Origin: Program Fullerene / C70 from database
 C            1.30585997       -0.10309466        4.40183660
 C            2.57824380       -0.41951760        3.80093693
 C            2.50926350       -1.77872346        3.28443890
 C            0.46922880       -1.28943970        4.33070769
 C            1.20662248       -2.32076071        3.62027700
 C           -0.83705667       -0.88732120        3.83082045
 C            0.54614129        1.00604312        3.86181458
 C           -0.81687056        0.54824965        3.63330913
 C            1.12289001        1.87784946        2.93757109
 C            3.06095491        0.42712700        2.73081247
 C            2.39905415        1.61275582        2.40752587
 C            2.91778643       -1.74453012        1.88873866
 C            3.49733845       -0.43865629        1.64818034
 C            2.08992112       -2.30522512        0.91998177
 C            0.53583020       -3.07438129        2.66873961
 C            1.08225927       -3.17655766        1.32144800
 C           -1.47345748       -1.67733481        2.88619034
 C           -0.89454665       -2.89136904        2.51547534
 C           -2.40852196       -1.09046029        2.03664798
 C           -1.54157646        1.10774110        2.58304913
 C           -2.32140255        0.28448457        1.75908361
 C            0.25782946        2.74308494        2.27169898
 C           -1.13526326        2.35238838        2.11548303
 C            0.67419290        3.41781493        1.05605909
 C            2.81415278        2.25333213        1.24027359
 C            1.93959517        3.18948521        0.55652169
 C            3.48543479        0.07376465        0.36001740
 C            3.48374596        1.45808583        0.22399697
 C            2.04385853       -1.72617165       -0.35169561
 C            2.94240354       -0.70064220       -0.66536249
 C            1.01655335       -2.06124481       -1.24799031
 C           -0.02934196       -3.44663261        0.42735305
 C           -1.24039740       -3.47476300        1.23321777
 C           -0.06656205       -2.83956544       -0.82272404
 C           -3.11517723       -1.93112680        1.18359872
 C           -2.43206567       -3.09279125        0.64260044
 C           -3.91566172       -1.36375470        0.12114353
 C           -2.90406655        0.81656572        0.59482345
 C           -3.77229152        0.04328238       -0.17213065
 C           -1.58576339        2.81685909        0.82083673
 C           -0.45673565        3.43916992        0.14620530
 C           -2.46006699        2.03727283        0.07934257
 C           -0.27458842        3.20930500       -1.21720107
 C            2.11775819        3.00879410       -0.87498331
 C            3.19281335        2.04557899       -1.06923699
 C            1.01130619        2.98653584       -1.72740761
 C            3.00291658       -0.21683474       -1.96684434
 C            3.15555382        1.21615504       -2.17918927
 C            1.03425417       -1.55977614       -2.55284077
 C            2.06620049       -0.71734039       -2.95382242
 C           -0.13094162       -1.59491302       -3.31569409
 C           -1.28540627       -2.77242891       -1.50295399
 C           -2.47465952       -2.95668419       -0.79944098
 C           -3.60716952       -2.09916185       -1.09599952
 C           -1.33623203       -2.17437009       -2.75619821
 C           -3.75158113        0.17843469       -1.61864571
 C           -3.48705257       -1.13935823       -2.17714424
 C           -2.45168388       -1.29690292       -3.09017277
 C           -2.54278003        2.28053700       -1.29005817
 C           -1.39521850        2.86070750       -1.97007117
 C           -3.13823425        1.29288497       -2.17330862
 C           -0.52181115       -0.42266637       -4.08612181
 C           -1.90772795       -0.13015062       -3.76308745
 C           -1.24350782        2.18321650       -3.24623172
 C           -2.25740252        1.14154633       -3.32278521
 C            1.17371334        2.47401355       -3.01557899
 C            2.29580664        1.59260530       -3.28326703
 C            1.76830633        0.37355131       -3.86667350
 C            0.03076111        1.94641311       -3.73908381
 C            0.38427185        0.61901595       -4.22681191
