   70
C70 / DATE: 7/ 1/2024 / Origin: Program Fullerene / C70 from database
 C            1.36324233        0.04908114        4.99516968
 C            0.59483340       -1.15585508        4.74040617
 C            1.48497937       -2.10822913        4.11902321
 C            2.60786864       -0.05932662        4.25086244
 C            2.69887233       -1.40348206        3.73104333
 C            2.65106742        1.03827954        3.31054630
 C            0.61950025        1.17095820        4.44922985
 C            1.48676175        1.87994377        3.53935194
 C           -0.61453372       -0.77801220        4.02701239
 C           -0.62688122        0.67202821        3.92305338
 C           -1.03467067       -1.52899311        2.92243959
 C            1.00844557       -2.80748664        2.94891053
 C           -0.32279810       -2.68437404        2.56216986
 C            2.87369671       -1.58638240        2.29796334
 C            2.02225198       -2.69105308        1.91521938
 C            3.03816594        0.81295869        1.99136105
 C            2.94451507       -0.48152752        1.45420238
 C            2.89388532        1.89546998        1.13554314
 C            0.92752790        2.50717696        2.42994821
 C            1.80831039        2.82355091        1.40741535
 C           -1.11592506        1.22593642        2.75184807
 C           -0.41137379        2.24932498        2.09588449
 C           -1.87653054       -0.91091339        1.98255335
 C           -2.02945296        0.47703686        2.02832802
 C           -2.34010163       -1.63200374        0.87515196
 C           -0.65335356       -3.32079392        1.37657266
 C           -1.83375401       -2.90532747        0.65215913
 C            1.59701002       -2.80059755        0.59662018
 C            0.40576203       -3.48444269        0.39226222
 C            2.62782516       -0.65320541        0.10045702
 C            1.96069737       -1.81520080       -0.32822829
 C            2.94021546        1.68755069       -0.29545489
 C            2.85497452        0.39755773       -0.79229383
 C            1.28910404        3.28099976        0.14012878
 C            2.13445244        2.73021879       -0.90685133
 C           -0.93632341        2.75187130        0.89244141
 C           -0.08261952        3.32483739       -0.06301413
 C           -2.76360780        1.12876741        1.05699809
 C           -2.22834189        2.36713093        0.52487187
 C           -3.03770350       -0.98325228       -0.15253819
 C           -3.32673689        0.37042603       -0.03938754
 C           -3.16180389       -1.58523638       -1.40615738
 C           -1.64767205       -3.36388110       -0.70916633
 C           -0.21015865       -3.46263207       -0.91543078
 C           -2.41833696       -2.79836094       -1.70854278
 C            1.46562151       -1.89091613       -1.63720581
 C            0.37945155       -2.72428636       -1.93509683
 C            2.55136261        0.24198718       -2.13800641
 C            1.91843681       -0.98088368       -2.58570212
 C            1.57768698        2.50870082       -2.16172899
 C            1.94087657        1.35283135       -2.85843244
 C           -0.51780755        3.51396377       -1.37365606
 C            0.37990727        3.15509579       -2.46247222
 C           -2.66546651        2.47528766       -0.85482969
 C           -3.29023699        1.21145722       -1.22617090
 C           -1.86372310        3.13874988       -1.76480550
 C           -3.15950917       -0.75050149       -2.60032511
 C           -3.03408165        0.63021563       -2.46801327
 C           -1.81208269       -2.62520744       -3.01585201
 C           -0.36621916       -2.51342577       -3.09444976
 C           -2.38260705       -1.43572463       -3.61842116
 C            1.09032528       -0.65656156       -3.73576491
 C            1.06541309        0.79127766       -3.87848415
 C           -0.06060933       -1.39442521       -3.96743246
 C           -1.31169525       -0.71445223       -4.27960951
 C           -0.42965795        2.70521628       -3.57843009
 C           -1.81502870        2.66509293       -3.13511931
 C           -2.34211222        1.34860825       -3.44539560
 C           -0.12192918        1.43466115       -4.20494422
 C           -1.35760079        0.67270285       -4.27973475
