   70
C70 / DATE: 7/ 1/2024 / Origin: Program Fullerene / C70 from database
 C            1.33077884       -0.10473524        4.32374766
 C            2.52436127       -0.41829580        3.57907510
 C            2.47001919       -1.82509147        3.21105142
 C            0.50301687       -1.30292682        4.37045400
 C            1.17750270       -2.34449986        3.61946360
 C           -0.83924478       -0.90893213        3.97891690
 C            0.48609674        0.97967601        3.86123603
 C           -0.87693539        0.53767720        4.07763399
 C            0.78976363        1.66424205        2.67846657
 C            2.80550282        0.33356883        2.37550897
 C            1.96698750        1.37575356        1.97065382
 C            2.86650713       -1.93195654        1.81460123
 C            3.26075424       -0.61170392        1.37387085
 C            2.12437508       -2.72273847        0.94774229
 C            0.44648683       -3.09822996        2.71271591
 C            1.05751843       -3.47114275        1.44993813
 C           -1.44529194       -1.52978556        2.88507475
 C           -0.93573119       -2.73546164        2.42131461
 C           -2.33177749       -0.79850211        2.08908344
 C           -1.88179730        1.20629014        3.41172799
 C           -2.77881629        0.42639132        2.58120291
 C           -0.22697804        2.41062952        2.06548857
 C           -1.51290803        2.35350298        2.60776183
 C           -0.03019060        2.94620628        0.78303917
 C            2.10048174        1.83140353        0.66068156
 C            1.22461627        2.80338011        0.18134900
 C            3.08183485       -0.26583731        0.04551538
 C            2.85762355        1.07124528       -0.23748194
 C            2.19273688       -2.47207340       -0.42473945
 C            2.66353823       -1.22720121       -0.88186041
 C            1.46197847       -3.29980959       -1.27288614
 C           -0.03317644       -3.83462551        0.56536191
 C           -1.21456120       -3.14410031        1.05766271
 C            0.20451177       -3.84548383       -0.79601880
 C           -2.46577080       -1.10209875        0.72003540
 C           -1.89995693       -2.27997653        0.20737246
 C           -3.18190790       -0.24644902       -0.13456734
 C           -3.41817977        1.36750982        1.69132074
 C           -2.65186738        2.60474699        1.75645874
 C           -3.56000603        1.01601210        0.29908494
 C           -1.12753402        3.40358662        0.02727428
 C           -2.40879762        3.03889362        0.40438100
 C           -3.15999022        2.17176836       -0.48684042
 C           -0.96132769        3.66590547       -1.32389905
 C            1.48154965        3.39457694       -1.05326178
 C            0.36885776        3.85847189       -1.84862913
 C            2.97562662        1.47132348       -1.55419396
 C            2.40187209        2.73780244       -1.95961474
 C            2.50047735       -0.84373676       -2.22702649
 C            2.68882636        0.49257924       -2.58513648
 C            1.26289981       -2.91716955       -2.65279320
 C            1.71960589       -1.61684809       -3.08060060
 C           -0.82398780       -3.33481114       -1.68012120
 C           -1.79485446       -2.47154223       -1.17437304
 C           -0.16338422       -2.99970596       -2.92898138
 C           -3.10830211       -0.43233113       -1.50745088
 C           -2.41897114       -1.58563420       -2.04296899
 C           -2.68462022        1.97854210       -1.78540073
 C           -1.71242821        2.85655007       -2.27333253
 C           -2.80500792        0.71133176       -2.35871268
 C            0.43410866        3.19162559       -3.13979500
 C            1.71049271        2.52465439       -3.22149813
 C            1.73123043        1.10234118       -3.49350721
 C           -0.77249377        2.40115540       -3.28608260
 C            0.63274599       -0.97531969       -3.80609059
 C           -0.55716306       -1.78835033       -3.62535004
 C           -1.74130189       -1.17094569       -3.26437740
 C           -1.83498021        0.27278105       -3.35073467
 C            0.54994662        0.41620879       -3.77422260
 C           -0.69499092        1.03971836       -3.57371825
