   70
C70 / DATE: 7/ 1/2024 / Origin: Program Fullerene / C70 from database
 C            1.24457682       -0.15241164        4.52032039
 C            2.55599829       -0.29741174        3.92228251
 C            2.55785927       -1.54998966        3.18401235
 C            0.42153113       -1.25862922        4.04843083
 C            1.18823904       -1.99062550        3.06205271
 C           -0.86171126       -0.71318908        3.65923989
 C            0.49648913        1.07177841        4.29918001
 C           -0.88166884        0.68084507        4.06403517
 C            1.05475053        2.10017244        3.54308730
 C            3.05095856        0.73883775        3.03123460
 C            2.31486596        1.89994730        2.83879224
 C            3.29970269       -1.33710497        1.96453659
 C            3.63228006        0.07573782        1.88024607
 C            2.87045041       -1.95427069        0.79676019
 C            0.66219142       -2.15793163        1.78441159
 C            1.52760368       -2.35351857        0.69902511
 C           -1.40583673       -1.05654695        2.42461155
 C           -0.68803355       -1.87933766        1.54903865
 C           -2.46564080       -0.29562345        1.93219918
 C           -1.72731463        1.54292020        3.38429053
 C           -2.69850468        0.97048263        2.46958921
 C            0.19859634        2.90731780        2.68864311
 C           -1.17611771        2.72134305        2.72495917
 C            2.16617279        2.43042311        1.49236437
 C            0.85208043        3.04280506        1.39664013
 C            3.57526049        0.67220016        0.62239097
 C            2.66155771        1.71577748        0.40611301
 C            3.52243623       -1.54865485       -0.35671354
 C            3.91197548       -0.14958624       -0.44740626
 C            3.00471297       -1.95152975       -1.64155617
 C            0.97671852       -2.65030315       -0.55392386
 C            1.77300893       -2.58583020       -1.70907393
 C           -1.23517790       -2.19111193        0.30760707
 C           -0.41423512       -2.76021494       -0.66981577
 C           -3.02165451       -0.61805439        0.69622718
 C           -2.49542507       -1.68476045       -0.03160310
 C           -3.85134429        0.30855246        0.05710504
 C           -3.09535878        2.04392882        1.58415282
 C           -1.94369481        2.92780272        1.50670980
 C           -3.75188049        1.71424357        0.41174290
 C            0.10231742        2.88436865        0.23314440
 C           -1.28138329        3.07001049        0.28620749
 C            2.01501375        1.84311712       -0.83029794
 C            0.68252192        2.26436234       -0.87886157
 C            3.63089847        0.29896078       -1.79258588
 C            3.26719741       -0.86891600       -2.57237118
 C            2.59027728        1.28431483       -1.96801167
 C            2.20308645       -0.48194031       -3.47854238
 C            1.72658643        0.82312556       -3.04417758
 C            1.16298889       -2.62314591       -2.95943744
 C            1.26493978       -1.44542983       -3.81137306
 C           -0.97253221       -3.22032367       -1.85750982
 C           -0.19104976       -3.11925788       -3.06891197
 C           -3.05544081       -1.98425781       -1.26978159
 C           -2.32049546       -2.81903567       -2.20080000
 C           -4.02245935        0.24670717       -1.38541980
 C           -3.63022305       -0.90332374       -2.04816008
 C           -3.37335687        2.42228535       -0.79628213
 C           -2.02757263        2.96141912       -0.88265762
 C           -3.57235703        1.52084793       -1.91678484
 C           -0.08422544        1.99810981       -2.01750191
 C            0.35932714        1.05858484       -2.94244311
 C           -1.40667003        2.40515988       -2.07058170
 C           -2.37057984        1.54311698       -2.73371603
 C           -0.09408427       -1.02353520       -4.07871945
 C           -0.90152800       -2.22074645       -3.96472743
 C           -2.24947675       -2.09360962       -3.46330378
 C           -2.77159792       -0.76596589       -3.20959050
 C           -0.55668381        0.16868293       -3.51957339
 C           -1.92985612        0.34783505       -3.29916760
