   70
C70 / DATE: 7/ 1/2024 / Origin: Program Fullerene / C70 from database
 C            1.52926497       -0.00054968        4.66049106
 C            0.71210836       -1.17441825        4.44964326
 C            1.28996653       -1.93778100        3.35649474
 C            2.60298334       -0.03871014        3.68496402
 C            2.36796965       -1.14638281        2.78755367
 C            2.67733984        1.27243616        3.10261384
 C            0.70409396        1.15774072        4.35348225
 C            1.44991630        1.97840446        3.43783659
 C           -0.65776270       -0.72429090        4.30449122
 C           -0.58984810        0.67890279        3.92664055
 C           -1.51183378       -1.54163991        3.59118379
 C            0.41762792       -2.58334745        2.49418044
 C           -0.93024491       -2.64998182        2.85262937
 C            0.75454357       -2.67121827        1.14596573
 C            2.38341696       -0.90495594        1.41226759
 C            1.60126195       -1.70781243        0.57923915
 C            3.10041657        1.39292118        1.79188035
 C            2.91211180        0.29895673        0.92011014
 C            2.92298446        2.66206272        1.27451134
 C            0.78378839        2.60812042        2.39110746
 C            1.61862854        3.26451691        1.49586565
 C           -1.09242486        1.07590544        2.68214829
 C           -0.40388519        2.02753398        1.90530997
 C           -2.44030668       -0.92083305        2.67295474
 C           -2.11005003        0.31127476        2.10485690
 C           -1.91241115       -3.04282285        1.85527438
 C           -2.92147091       -1.99089066        1.81883997
 C           -0.05301059       -3.44638761        0.32638720
 C           -1.45979271       -3.59385106        0.66547076
 C            0.04585323       -3.30855675       -1.10828148
 C            1.58885396       -1.47716155       -0.80231270
 C            0.90771846       -2.36148399       -1.64986319
 C            2.94561732        0.51324007       -0.46892359
 C            2.25524031       -0.35898505       -1.33127525
 C            3.29829968        2.89973183       -0.08921117
 C            3.40033056        1.74658266       -0.94987513
 C            1.11612995        3.65627850        0.20135214
 C            2.28165498        3.76682632       -0.65640115
 C           -0.79427100        2.23257228        0.56908565
 C           -0.02762706        3.03850151       -0.28777029
 C           -2.57255908        0.61379776        0.82503774
 C           -1.95401579        1.62150065        0.08516158
 C           -3.51046202       -1.64928746        0.61322720
 C           -3.46728090       -0.25936576        0.20013759
 C           -2.22906986       -3.39679538       -0.55068552
 C           -1.29448167       -3.45775771       -1.65987874
 C           -3.25643343       -2.45904783       -0.56807564
 C           -1.60278827       -2.81654125       -2.85106718
 C            0.77032115       -2.05541077       -2.99621114
 C           -0.50686589       -2.30098804       -3.64804240
 C            2.09610623       -0.02385886       -2.68890758
 C            1.26056193       -0.79089745       -3.48418958
 C            2.97403069        2.20664355       -2.25045370
 C            2.15052223        3.39158321       -2.04362376
 C            2.21656498        1.30158046       -3.07428531
 C           -0.24915743        3.01037281       -1.67200279
 C            0.83107085        3.07454990       -2.54711217
 C            1.01041564        1.99404224       -3.49504653
 C           -2.35266035        1.85224791       -1.22920624
 C           -1.41630802        2.44593586       -2.15876575
 C           -3.61732570       -0.23724901       -1.24317907
 C           -3.42649281       -1.59756554       -1.72848248
 C           -2.67118492       -1.82544026       -2.87436942
 C           -3.09174520        0.83074470       -1.95103876
 C           -0.94231022       -1.05509227       -4.25568916
 C            0.15755294       -0.11725770       -4.15589533
 C           -0.09078806        1.21731600       -3.84133723
 C           -1.34225421        1.58067138       -3.33119279
 C           -2.22118171       -0.69860804       -3.67690854
 C           -2.41496299        0.59972863       -3.21883552
