   70
C70 / DATE: 7/ 1/2024 / Origin: Program Fullerene / C70 from database
 C            1.50769497        0.03065624        4.52961597
 C            0.73155009       -1.16308099        4.26175672
 C            1.50877340       -2.01880735        3.39015917
 C            2.68621958       -0.01460394        3.68135495
 C            2.64833874       -1.24165558        2.92134071
 C            2.74151513        1.22528114        2.95276083
 C            0.71186142        1.17466308        4.11613623
 C            1.53137004        1.97850938        3.24748206
 C           -0.57436069       -0.75044106        3.80000314
 C           -0.54170527        0.68829370        3.59137297
 C           -1.19072477       -1.52379268        2.83249814
 C            0.82948747       -2.80397607        2.46601970
 C           -0.56328406       -2.69215351        2.38124041
 C            1.53841868       -3.21895296        1.34315860
 C            2.92031368       -1.21122569        1.55303664
 C            2.57837552       -2.34669030        0.81975099
 C            3.17590633        1.21877790        1.63422740
 C            3.07959499        0.02365651        0.89051490
 C            3.02531053        2.43034915        0.97491206
 C            0.93631147        2.65452104        2.18946837
 C            1.82265090        3.19357769        1.26991969
 C           -1.01304287        1.19711377        2.37955242
 C           -0.33209855        2.24559303        1.73638744
 C           -2.12512467       -0.90520554        2.01258969
 C           -1.93727221        0.43458656        1.66162474
 C           -2.96408484       -1.70753953        1.26060848
 C           -1.24672754       -3.49974309        1.47418368
 C           -2.56670549       -3.08411185        1.03121558
 C            0.83183279       -3.80732898        0.21726443
 C           -0.53731917       -4.01743616        0.31467750
 C            2.37764437       -2.24487047       -0.61086005
 C            1.39400810       -3.24113788       -0.99893540
 C            2.94273900        0.07487042       -0.51140325
 C            2.34885657       -0.98587827       -1.18743604
 C            3.25294470        2.49213897       -0.44658070
 C            3.11973781        1.27037166       -1.19939727
 C            1.32107859        3.72813751        0.03005288
 C            2.31444579        3.45307996       -0.99347625
 C           -0.80628657        2.69942645        0.49479583
 C           -0.01501056        3.55331211       -0.29499731
 C           -2.46979945        0.93396264        0.47106597
 C           -1.98411214        2.14803581       -0.03330771
 C           -3.50874385       -1.19342998        0.02602385
 C           -3.35674235        0.14960759       -0.28676114
 C           -2.66956809       -3.34693896       -0.39468502
 C           -1.38350600       -3.82686464       -0.85440261
 C           -3.24473060       -2.17087325       -1.01921418
 C            0.57472579       -2.98902243       -2.09002372
 C           -0.84569716       -3.29527567       -2.02014032
 C            1.54253900       -0.73725180       -2.30348764
 C            0.72465301       -1.73711962       -2.81098713
 C            2.26294599        1.54684141       -2.34264427
 C            1.85013714        2.94097329       -2.26826012
 C            1.34720292        0.57199072       -2.73677075
 C           -0.35106951        3.75821584       -1.62883341
 C            0.56020044        3.26521626       -2.65231411
 C           -2.53642147        2.68443014       -1.19616888
 C           -1.69261546        3.46408704       -2.07124923
 C           -3.59384969        0.48464314       -1.61114218
 C           -3.31820833        1.82831386       -2.05894358
 C           -2.75166799       -1.71603392       -2.24116617
 C           -1.56397568       -2.25377471       -2.74802080
 C           -0.57048770       -1.36962261       -3.34688834
 C           -3.12163210       -0.43269157       -2.63612364
 C            0.11538019        0.94426656       -3.29586966
 C           -0.19412575        2.29983125       -3.42201513
 C           -1.57405999        2.72866945       -3.32207125
 C           -2.60806141        1.72244024       -3.32505984
 C           -0.87781352       -0.02401701       -3.51788761
 C           -2.22412960        0.33310657       -3.47924743
