   70
C70 / DATE: 7/ 1/2024 / Origin: Program Fullerene / C70 from database
 C            1.09243153       -0.03646256        5.38325706
 C            0.40169223       -1.20194754        4.85752149
 C            1.36978354       -2.02197468        4.17137516
 C            2.43696586       -0.03500195        4.83140213
 C            2.60990382       -1.26260546        4.08377743
 C            2.62903748        1.22493532        4.14608039
 C            0.40890382        1.14798837        4.88712525
 C            1.39074831        1.98769123        4.25011460
 C           -0.74209126       -0.73660380        4.10507545
 C           -0.72560400        0.71344580        4.09998492
 C           -1.09631694       -1.36706976        2.91822834
 C            1.04885089       -2.48653004        2.83274587
 C           -0.21152587       -2.25000057        2.28523357
 C            2.97545031       -1.19786293        2.67773129
 C            2.20273527       -2.22347342        2.00216520
 C            3.01739165        1.22575977        2.74376817
 C            3.15894155        0.03138646        2.03475239
 C            1.09449697        2.50745209        2.92882505
 C            2.28223689        2.30676565        2.12520678
 C           -1.04058218        1.35513164        2.90022757
 C           -0.14845795        2.27489025        2.32813684
 C           -1.99805221       -0.69467738        2.11234202
 C           -1.93021383        0.70031393        2.05635425
 C           -2.49424495       -1.36143312        1.00942231
 C           -0.36677468       -2.45639600        0.90751023
 C           -1.60960596       -2.19907915        0.32410584
 C            2.00028096       -2.08360424        0.64123250
 C            0.77188858       -2.46403590        0.09564627
 C            3.03636910        0.06897672        0.64091517
 C            2.74639458       -1.12079759       -0.02440203
 C            2.11061044        2.28451203        0.75645967
 C            2.73384573        1.28465810        0.01293083
 C           -0.25155628        2.55216677        0.95509696
 C            0.93192153        2.81618002        0.25961074
 C           -2.32628025        1.33402738        0.88346474
 C           -1.39373254        2.15053056        0.24279390
 C           -3.48987047       -0.70795270        0.30499099
 C           -3.33313030        0.72442091        0.14098583
 C           -3.92422102       -1.26032389       -0.95406377
 C           -1.77633192       -2.40663990       -1.05006477
 C           -3.04148886       -2.19890311       -1.60694650
 C            0.62912393       -2.41623424       -1.29170683
 C           -0.64082428       -2.49264633       -1.86905124
 C            2.70744484       -1.12365093       -1.40653680
 C            1.70292921       -1.94742510       -2.05157975
 C            2.58233451        1.32363619       -1.37827514
 C            2.73841914        0.14499179       -2.10861555
 C            0.88573718        3.06445398       -1.09805740
 C            1.86562993        2.38876280       -1.92916486
 C           -1.42228219        2.29089729       -1.15416620
 C           -0.38581581        2.97215431       -1.77835701
 C           -3.43597508        0.99659078       -1.27747501
 C           -4.11165609       -0.14515959       -1.86512075
 C           -2.34387097        1.56593665       -1.92266957
 C           -3.18696974       -1.95361062       -3.02655338
 C           -3.69993798       -0.59714287       -3.17300748
 C           -0.74985410       -2.38350616       -3.25891588
 C           -2.02313093       -2.07367498       -3.87253685
 C            1.47091250       -1.38782973       -3.37006253
 C            2.04028809       -0.04661167       -3.37615441
 C            0.25332033       -1.62830958       -3.98798284
 C            1.29424146        2.28005213       -3.25867218
 C           -0.09706303        2.70157726       -3.16968191
 C            1.32987289        1.00338217       -3.94294462
 C           -2.06999124        1.25133979       -3.26837349
 C           -2.69112816        0.16094287       -3.87923914
 C           -1.85993228       -0.80786226       -4.56923424
 C           -0.43478648       -0.54222129       -4.67238316
 C           -0.90080920        1.71962487       -3.85987808
 C            0.00297398        0.76368520       -4.48472383
