   70
C70 / DATE: 7/ 1/2024 / Origin: Program Fullerene / C70 from database
 C            1.29426921        0.22255520        4.84759109
 C            0.54027810       -1.01517760        4.76063979
 C            1.42270400       -2.03096264        4.23532180
 C            2.55606549        0.01732916        4.15773554
 C            2.64996637       -1.38077033        3.80486692
 C            2.63654599        0.99356450        3.09281008
 C            0.55686990        1.24310301        4.12150425
 C            1.43485598        1.80232205        3.11719470
 C           -0.68845795       -0.74001825        4.03940805
 C           -0.69134717        0.66665216        3.67661085
 C           -1.15835261       -1.65242774        3.09659334
 C            0.94430555       -2.83282033        3.12995194
 C           -0.39843940       -2.79517159        2.78048463
 C            2.86876869       -1.72826999        2.41116562
 C            1.91778379       -2.76287010        2.05320350
 C            3.11248772        0.61705810        1.84488773
 C            3.13542583       -0.73743992        1.47732605
 C            2.95565404        1.54085548        0.82247794
 C            0.89681782        2.17315840        1.88776202
 C            1.77064977        2.29335498        0.80806917
 C           -1.16821716        1.01066681        2.41734112
 C           -0.45116224        1.91395067        1.62114582
 C           -2.10502507       -1.19115055        2.17818784
 C           -2.08779108        0.15890028        1.80683295
 C           -2.74547424       -2.11632931        1.36945832
 C           -0.72687141       -3.50814124        1.63473683
 C           -2.04447032       -3.34291462        1.06838646
 C            1.44806926       -2.84380227        0.73690634
 C            0.23162853       -3.49082221        0.53618634
 C            2.95116858       -1.05942993        0.13345065
 C            1.89140506       -1.90601516       -0.20846767
 C            3.55515271        1.21638072       -0.38196914
 C            3.43162192       -0.16236036       -0.80860254
 C            3.30707793        2.05767753       -1.52631870
 C            1.27222301        2.77816758       -0.40363201
 C            2.15446330        2.92603062       -1.47257482
 C           -0.95707854        2.22330502        0.35947373
 C           -0.11164721        2.74074083       -0.63233502
 C           -2.69918963        0.57715244        0.62223924
 C           -2.21374325        1.74011863        0.00881436
 C           -3.36898934       -1.67181752        0.14422436
 C           -3.51799330       -0.31143354       -0.09239781
 C           -1.90662437       -3.42410898       -0.37387077
 C           -0.50774133       -3.26305549       -0.69025598
 C           -2.82811150       -2.47419160       -0.94103125
 C            1.11305680       -1.62042756       -1.34744284
 C           -0.13473939       -2.21509832       -1.52280135
 C            2.82930128       -0.13773899       -2.12473155
 C            3.11798869        1.17489928       -2.66360738
 C            1.56109774       -0.69272306       -2.28737326
 C            1.64044473        2.97950674       -2.82040626
 C            2.13695916        1.79633325       -3.51531189
 C           -0.63216038        3.04781668       -1.90189328
 C            0.20931844        3.00326223       -3.01282884
 C           -2.82321931        2.23658952       -1.13204033
 C           -1.99426264        2.86848261       -2.14421276
 C           -3.89597737        0.02685988       -1.38755481
 C           -3.79528559        1.40496423       -1.80505575
 C           -2.46378795       -1.79076588       -2.08977332
 C           -1.09038181       -1.59723371       -2.34532745
 C           -3.35336995       -0.79436806       -2.45962566
 C            0.65854231       -0.15353157       -3.21858209
 C            0.96972049        1.03087102       -3.89475023
 C           -0.06845743        2.02357355       -4.04958108
 C           -0.67339687       -0.58908574       -3.23144392
 C           -2.37797262        2.30777101       -3.43076423
 C           -3.48658883        1.40085614       -3.22253914
 C           -3.01607490        0.06732885       -3.56059646
 C           -1.36772476        1.58064797       -4.17348030
 C           -1.62256124        0.16966704       -3.92980948
