   70
C70 / DATE: 7/ 1/2024 / Origin: Program Fullerene / C70 from database
 C            1.52209216        0.06860697        5.04000829
 C            0.71596071       -1.13917525        5.04837959
 C            1.43846284       -2.15763357        4.31095850
 C            2.62908832       -0.14385804        4.12266862
 C            2.61838445       -1.53390965        3.73112026
 C            2.54359052        0.86242649        3.08067526
 C            0.70540136        1.14087293        4.50051185
 C            1.41663935        1.72504876        3.38036698
 C           -0.62463135       -0.78635114        4.61522780
 C           -0.62706655        0.62327893        4.25686577
 C           -1.33067277       -1.67398299        3.81654322
 C            0.74795756       -2.87542416        3.25134747
 C           -0.62814148       -2.75860361        3.13330543
 C            2.62747195       -1.84326750        2.31677858
 C            1.55998167       -2.78730019        2.05164921
 C            2.75050138        0.50917571        1.74829746
 C            2.84796200       -0.83818676        1.37969681
 C            2.34989862        1.42134274        0.77129992
 C            0.67213933        2.19955117        2.30807152
 C            1.29478875        2.29436175        1.06459964
 C           -1.28109842        1.03323211        3.09625274
 C           -0.71574768        2.06455953        2.34419132
 C           -2.30142101       -1.14307810        2.87874914
 C           -2.23531337        0.19809156        2.50265647
 C           -1.23112513       -2.90285073        1.81948878
 C           -2.47003205       -2.15066484        1.85194449
 C            0.95431867       -2.73921911        0.79702286
 C           -0.43399826       -2.84758781        0.67284128
 C            2.60251929       -1.15551412        0.04915344
 C            1.66532759       -2.15220209       -0.24159104
 C            2.65640158        1.14473315       -0.56045303
 C            2.86149038       -0.18919163       -0.91641577
 C            2.29404687        2.07935634       -1.52530871
 C            0.61622112        2.93561652        0.02727929
 C            1.18776360        2.97188634       -1.23872401
 C           -1.45447654        2.60688002        1.30401382
 C           -0.75156984        3.15472229        0.15548395
 C           -2.84704366        0.59351084        1.30839230
 C           -2.60119470        1.86820058        0.80886607
 C           -3.03119334       -1.76933772        0.65035723
 C           -3.38962574       -0.37335012        0.46367948
 C           -1.03774681       -2.53987131       -0.55594083
 C           -2.38644201       -2.19789982       -0.57638789
 C            1.14465886       -2.21968944       -1.52553296
 C           -0.24626755       -2.24182231       -1.67290586
 C            2.77828215       -0.58246684       -2.24863973
 C            1.93981463       -1.72580057       -2.55025797
 C            2.21598309        1.69752047       -2.92488789
 C            2.56082071        0.40416511       -3.28869315
 C            0.32903409        3.01033782       -2.41409391
 C            1.03540581        2.33612627       -3.49550399
 C           -1.61446777        2.99993483       -1.00334941
 C           -2.71682159        2.12882173       -0.62018208
 C           -1.05173146        2.86464957       -2.26734067
 C           -3.42967376       -0.14112809       -0.97146858
 C           -2.87535054       -1.32354408       -1.61908810
 C           -3.12301634        1.11680262       -1.48793659
 C           -0.84274766       -1.71394928       -2.83320499
 C           -2.12400364       -1.14976705       -2.76912718
 C            1.36849700       -1.53268994       -3.86286723
 C            1.85394378       -0.25806560       -4.37134518
 C           -0.07194343       -1.53670326       -3.98450163
 C            0.31653040        1.71459603       -4.51083470
 C            0.73594309        0.41373952       -5.00431891
 C           -0.40994832       -0.47815256       -4.92024225
 C           -1.78877653        2.20197733       -3.24362345
 C           -2.76113122        1.20234092       -2.83119688
 C           -2.41621784       -0.02245040       -3.52909912
 C           -1.13122883        1.70428735       -4.44165868
 C           -1.57545656        0.33393537       -4.65202247
