   70
C70 / DATE: 7/ 1/2024 / Origin: Program Fullerene / C70 from database
 C            1.68558163       -0.27323244        4.96148745
 C            0.83129713       -1.44774320        4.99643112
 C            1.25117969       -2.33746395        3.92856793
 C            2.63690681       -0.45043628        3.88185828
 C            2.39237145       -1.74316035        3.26496975
 C            2.57703327        0.72780460        3.03069514
 C            0.85929363        0.87078560        4.62163009
 C            1.44902407        1.53109961        3.46663439
 C           -0.52283772       -1.02142155        4.69503077
 C           -0.51569391        0.41880533        4.51710202
 C            0.08815137       -2.64880086        3.12272454
 C           -1.01975701       -1.83785559        3.59917800
 C            0.24862744       -2.77909667        1.75142973
 C            2.45395961       -1.80733650        1.87887132
 C            1.50968762       -2.56683682        1.18044951
 C            2.76382865        0.54691984        1.66774615
 C            3.04391011       -0.74043132        1.21631957
 C            2.17207808        1.44664202        0.77917152
 C            0.59046019        2.05322637        2.50239420
 C            1.02467973        2.14149732        1.17377172
 C           -1.28714872        0.94037437        3.48962051
 C           -0.77794645        2.01474652        2.76063814
 C           -1.85090676       -1.23308110        2.65703327
 C           -2.20603927        0.09914641        2.86348528
 C           -0.87664931       -2.63103227        0.95243137
 C           -1.87906586       -1.74181031        1.35252637
 C           -0.77581723       -3.00894360       -0.37465748
 C            1.64582815       -2.67232365       -0.21073977
 C            0.54679812       -3.06956405       -0.97015787
 C            3.34247505       -0.90705802       -0.12109106
 C            2.69212303       -1.99328014       -0.83423727
 C            2.47864121        1.32834523       -0.57608545
 C            3.26993544        0.25492829       -0.97834523
 C            1.69840131        1.98582800       -1.52679568
 C            0.15980977        2.66278448        0.20463412
 C            0.44939436        2.49592361       -1.15378895
 C           -1.63362641        2.66195542        1.88431099
 C           -1.12358206        3.05539531        0.58188556
 C           -3.12692655        0.67896598        2.00513409
 C           -2.94942519        2.08335588        1.68403844
 C           -2.69218529       -1.12033603        0.39482193
 C           -3.44979972       -0.01056231        0.76848831
 C           -1.68480096       -2.44377910       -1.34939656
 C           -2.56919794       -1.44826108       -0.96011035
 C            0.42690785       -2.65644037       -2.36156279
 C           -0.96594344       -2.31520128       -2.60829099
 C            2.57532605       -1.58139124       -2.22803921
 C            3.15535799       -0.24582728       -2.33076328
 C            1.42879419       -1.89775576       -2.95819413
 C            2.01894183        1.83218529       -2.87662314
 C            2.68815525        0.61345859       -3.30718234
 C            1.02958341        2.16167163       -3.87993131
 C           -0.58380914        2.62047862       -2.09810501
 C           -0.32930526        2.39649834       -3.44745673
 C           -2.20949495        2.93177675       -0.37358859
 C           -3.31838407        2.27598949        0.29716883
 C           -3.78172804        1.00204842       -0.22038639
 C           -1.90670055        2.54948394       -1.67098404
 C           -3.07353572       -0.59016230       -1.93396737
 C           -3.54997038        0.72825646       -1.55691972
 C           -2.77588342        1.68198630       -2.33177360
 C           -1.26768934       -1.26878208       -3.47609557
 C           -1.19548985        1.47694226       -4.17118332
 C           -2.36471018       -0.44763011       -3.20071734
 C           -2.30610903        0.97854650       -3.51004847
 C            1.11183776       -1.14260328       -4.08635408
 C            1.89696463        0.04480624       -4.37597499
 C            1.00221684        1.08108715       -4.85249272
 C           -0.28386259       -0.82868830       -4.36124468
 C           -0.34154042        0.53458302       -4.85939491
