   70
C70 / DATE: 7/ 1/2024 / Origin: Program Fullerene / C70 from database
 C            1.22753569        0.14099454        4.31278590
 C            2.51000738       -0.18306395        3.72972722
 C            2.51040554       -1.61027454        3.47234827
 C            0.38576094       -1.04487505        4.22568588
 C            1.13000268       -2.05733957        3.51233583
 C           -0.89763970       -0.63132702        3.70274237
 C            0.47376204        1.23705574        3.74488304
 C           -0.91361669        0.81499247        3.67277163
 C            0.99585020        1.96156070        2.67753543
 C            2.89856485        0.47813521        2.49707076
 C            2.05324309        1.42635423        1.92797540
 C            3.25862700       -1.83300360        2.25452357
 C            3.49928349       -0.52797958        1.64234367
 C            2.85350855       -2.87565967        1.43743212
 C            0.58371519       -2.63780434        2.36801794
 C            1.45181199       -3.28198413        1.48163494
 C           -1.44875746       -1.30281625        2.62445345
 C           -0.69558860       -2.26069394        1.92492004
 C           -2.54068503       -0.71263421        1.99542481
 C           -1.74211634        1.44570986        2.74992422
 C           -2.68750221        0.68476984        2.05395044
 C            0.13799422        2.86997937        2.07494526
 C           -1.29478567        2.64261345        2.18971186
 C            0.40685499        3.32473084        0.72649959
 C            2.11720312        1.65169099        0.54870636
 C            1.44231005        2.74722305        0.00213603
 C            3.39580191       -0.39612623        0.25778958
 C            2.74891666        0.71673764       -0.28856071
 C            3.24825957       -2.82807488        0.04705922
 C            3.55079331       -1.53198265       -0.52981229
 C            1.02098857       -3.53588866        0.11708933
 C            2.17718256       -3.41441733       -0.73834395
 C           -1.13191200       -2.68439612        0.66338804
 C           -0.18937613       -3.00736462       -0.30559872
 C           -3.20415834       -1.45987869        1.03039299
 C           -2.42945279       -2.40627689        0.25682192
 C           -4.15438933       -0.83115526        0.13738995
 C           -3.54118652        1.34743645        1.17099602
 C           -4.32464028        0.60140685        0.20722130
 C           -1.92755732        3.16589404        0.98959862
 C           -0.87058302        3.54370635        0.06569519
 C           -3.06432509        2.54351618        0.50106992
 C           -0.97542244        3.23362970       -1.28661360
 C            1.45253646        2.94821217       -1.37388716
 C            0.19677720        3.27951843       -2.03477061
 C            2.61723158        0.81874728       -1.67853477
 C            2.16564667        2.01742658       -2.22446421
 C            3.00645685       -1.53854580       -1.87068233
 C            2.04918360       -2.63270504       -1.94522367
 C            2.65215185       -0.33872177       -2.46925127
 C           -0.33525823       -2.50242711       -1.60855846
 C            0.78190688       -2.35391838       -2.44713490
 C           -2.65980253       -2.11208343       -1.14570639
 C           -3.76547785       -1.17174127       -1.22150048
 C           -1.55702298       -1.92680922       -1.97542375
 C           -4.03585207        1.15143224       -1.10857771
 C           -3.17466767        2.30911746       -0.92786411
 C           -2.04161927        2.43882812       -1.72925318
 C           -3.56868342        0.06594009       -1.94956095
 C           -1.57205423       -0.87354174       -2.89104580
 C           -1.84111013        1.51639985       -2.76219074
 C           -2.38436451        0.23607780       -2.65172851
 C            0.21631776        2.68192517       -3.35232180
 C            1.49938062        2.01941013       -3.51625398
 C           -0.82332936        1.73071619       -3.68311294
 C            1.79118286       -0.44161929       -3.55730957
 C            0.72844037       -1.42938980       -3.48656463
 C           -0.51553472       -0.74553695       -3.77936135
 C            1.25597773        0.75356340       -4.16920409
 C           -0.18310210        0.57660457       -4.28658150
