   70
C70 / DATE: 7/ 1/2024 / Origin: Program Fullerene / C70 from database
 C            1.24004038        0.07883714        4.54743343
 C            2.47798429       -0.20443987        3.85671573
 C            2.46995657       -1.61137847        3.50845325
 C            0.40106808       -1.10815849        4.47956415
 C            1.12751242       -2.12048067        3.73515853
 C           -0.91649839       -0.70447769        4.02027477
 C            0.45141311        1.19804228        4.08682815
 C           -0.90404524        0.73686730        3.84560939
 C            0.99259806        2.08969019        3.17045772
 C            2.78510228        0.54659371        2.65112560
 C            2.00415450        1.64173199        2.30364745
 C            3.03696524       -1.73847372        2.18160505
 C            3.14158318       -0.40308052        1.61072297
 C            2.56292009       -2.75363250        1.37526271
 C            0.48924720       -2.80712204        2.70364777
 C            1.26773269       -3.35158310        1.68482298
 C           -1.56912746       -1.48806535        3.08533473
 C           -0.88012437       -2.62944300        2.49780702
 C           -2.32862204       -0.84021356        2.03043299
 C           -1.61191416        1.33135221        2.79906898
 C           -2.17321543        0.52447772        1.79992832
 C            0.11421885        3.05448942        2.70043181
 C           -1.26821284        2.64278421        2.48922254
 C            0.51188047        3.85195684        1.56282701
 C            1.97761985        2.02348701        0.96106846
 C            1.45566785        3.26522684        0.63852691
 C            2.70986286       -0.17741100        0.29758626
 C            2.13946807        1.05376306       -0.03527291
 C            2.59186772       -2.55771390       -0.05582787
 C            2.57020586       -1.26020728       -0.57217993
 C            0.65312712       -3.72053639        0.41794674
 C            1.67861264       -3.53918605       -0.59760192
 C           -1.45360631       -2.84702571        1.17756493
 C           -2.36360460       -1.74943274        0.90421824
 C           -0.65796394       -3.32859686        0.14224351
 C           -2.39839513       -1.23401595       -0.37822905
 C           -2.36422964        1.02857216        0.50274251
 C           -2.54634556        0.14183974       -0.57474276
 C           -1.71544208        3.22318591        1.24219092
 C           -0.69114922        4.15968731        0.81923375
 C           -2.30082496        2.40932921        0.27861905
 C            0.95636286        3.50093740       -0.69954986
 C           -0.33573415        4.17285043       -0.58043516
 C            1.60642705        1.25653518       -1.31759226
 C            1.12128744        2.52254284       -1.67960846
 C            2.06939620       -1.06541959       -1.86212712
 C            1.53442599        0.18266307       -2.22323326
 C            1.28170266       -3.38006321       -1.90657738
 C            1.75419927       -2.20343662       -2.60828680
 C           -1.01717687       -3.04524479       -1.17995694
 C           -1.96118781       -2.03513470       -1.42637712
 C           -0.13419617       -3.43419580       -2.18809789
 C           -2.26179828       -1.63857460       -2.72343632
 C           -2.74038652        0.62666635       -1.87571079
 C           -2.58594730       -0.24195993       -2.96363087
 C           -2.36069690        2.89843722       -1.02425960
 C           -1.32352138        3.82201496       -1.48167963
 C           -2.66234785        1.99514451       -2.11560568
 C            0.38319269        2.66380883       -2.84935809
 C           -0.88864290        3.35858246       -2.77793440
 C           -1.90304282        2.45071171       -3.26471000
 C            0.87705834        0.34191119       -3.45813807
 C           -1.80605837        0.19836568       -4.11871827
 C            0.19272273        1.52444282       -3.71666225
 C           -1.22690411        1.45277912       -4.05876658
 C            0.91163642       -2.08813231       -3.77528399
 C           -0.27674182       -2.89904198       -3.52551363
 C           -1.43187457       -2.08592357       -3.82305387
 C            0.46461093       -0.77875941       -4.17454968
 C           -0.94425275       -0.89974670       -4.49561589
