   70
C70 / DATE: 7/ 1/2024 / Origin: Program Fullerene / C70 from database
 C            1.36796507       -0.04917252        5.16310451
 C            0.57609451       -1.20556520        4.77808089
 C            1.43800323       -2.07983348        4.02279652
 C            2.57935785       -0.06241764        4.35998680
 C            2.67868799       -1.36259532        3.74707885
 C            2.55383646        1.09904007        3.49701337
 C            0.61149288        1.13599459        4.80333465
 C            1.39608525        1.90498551        3.85587325
 C           -0.63988327       -0.72285645        4.14950250
 C           -0.70929888        0.70881602        4.39888854
 C           -1.03389981       -1.21803821        2.89905358
 C            0.95838357       -2.59222227        2.75789372
 C           -0.31053813       -2.24888879        2.28051336
 C            2.90986529       -1.43925748        2.31552652
 C            2.06950766       -2.51041764        1.83457280
 C            2.88967818        0.98559435        2.14854805
 C            2.99804203       -0.27990316        1.54309259
 C            2.60994609        2.08891525        1.35564635
 C            0.73665421        2.60334818        2.84411689
 C            1.45747307        2.91005796        1.69309475
 C           -1.38296368        1.49519052        3.48392399
 C           -0.65793218        2.54947014        2.77899858
 C           -1.96196858       -0.48580772        2.15368771
 C           -2.21705203        0.83973714        2.50018223
 C           -2.34356890       -0.92160414        0.88397619
 C           -0.57884703       -2.56164838        0.94391072
 C           -1.70661180       -2.02644613        0.31509300
 C            1.75594347       -2.54001135        0.49287182
 C            0.49163347       -2.99107457        0.15875476
 C            2.82937458       -0.40802143        0.15440952
 C            2.35960952       -1.62559840       -0.36742291
 C            2.66560142        1.97186888       -0.08307625
 C            2.88313235        0.72839981       -0.65786703
 C            0.76364104        3.22818009        0.45353995
 C            1.62904861        2.82777348       -0.63834242
 C           -1.33898588        2.75615785        1.50566108
 C           -2.43320290        1.80302422        1.44350049
 C           -0.60419729        3.01040616        0.34826762
 C           -3.04232023       -0.03537374        0.06188294
 C           -2.81006932        1.32956713        0.20358819
 C           -3.53865668       -0.48901833       -1.15188444
 C           -1.97844902       -2.37629914       -1.01537428
 C           -2.96923710       -1.69336158       -1.72312120
 C            0.27598385       -3.30726562       -1.16685243
 C           -1.05305228       -3.14834091       -1.71388979
 C            2.08075137       -1.75238412       -1.73267960
 C            1.21131754       -2.76862586       -2.13792483
 C            2.64948546        0.61117180       -2.02261049
 C            2.33495226       -0.68456104       -2.58747060
 C            1.06509077        2.47145798       -1.85426826
 C            1.78095606        1.58922698       -2.65962735
 C           -1.14926542        2.65687907       -0.89214146
 C           -2.40871245        2.04838319       -0.91279477
 C           -0.31714682        2.57594416       -2.01905855
 C           -3.71326365        0.47681508       -2.22687226
 C           -3.01911019        1.74837677       -2.12224920
 C           -2.82830230       -1.48249612       -3.16100870
 C           -3.31501229       -0.15201354       -3.47274718
 C           -0.89579297       -2.96444466       -3.14656655
 C            0.50538948       -2.66480961       -3.40206021
 C           -1.69945100       -1.96152393       -3.81256982
 C            1.49639304       -0.46046760       -3.76140847
 C            1.13183810        0.94805944       -3.78934240
 C            0.57177679       -1.42359792       -4.14529781
 C           -0.79003924       -1.03086603       -4.47493585
 C           -0.86667368        2.25581023       -3.25889160
 C           -2.28135926        1.95535897       -3.34964480
 C           -2.44041289        0.76815183       -4.17593075
 C           -0.16197355        1.32480034       -4.12507910
 C           -1.11574182        0.31986683       -4.56895589
