   70
C70 / DATE: 7/ 1/2024 / Origin: Program Fullerene / C70 from database
 C            1.43665643       -0.04725926        4.15949103
 C            2.64695183       -0.21336626        3.37044649
 C            2.54294942       -1.47546549        2.65934676
 C            0.61455273       -1.23088370        3.97675858
 C            1.30168665       -2.11999762        3.06616944
 C           -0.72328385       -0.80221932        3.63071740
 C            0.59765494        1.11924214        3.93836918
 C           -0.73059864        0.64824967        3.58499481
 C            1.12804186        2.21482786        3.27431227
 C            3.18464949        0.88699523        2.72257552
 C            2.51246688        2.17211541        2.83412062
 C            3.64972018        0.74796293        1.35432004
 C            2.94916869       -1.57353014        1.32815671
 C            3.52036842       -0.46810303        0.68157491
 C            2.47091750       -2.65066883        0.58193972
 C            0.56134312       -2.80337542        2.10859736
 C            1.24220978       -3.30567444        1.00315006
 C           -1.41222960       -1.48885113        2.63879230
 C           -0.82355901       -2.60846919        2.03187194
 C           -2.47193589       -0.83763037        2.00496192
 C           -1.44709779        1.26785486        2.56571152
 C           -2.49844656        0.56169681        1.97712893
 C            0.35147226        2.85442561        2.22662688
 C           -0.89860250        2.35889895        1.88024810
 C            2.59155751        2.83548395        1.54388248
 C            3.33577379        1.98077119        0.64499471
 C            1.25474447        3.23171866        1.15547373
 C            2.93672699        1.89502137       -0.68302328
 C            3.62840631       -0.45099571       -0.70920057
 C            3.38433645        0.79881457       -1.41181673
 C            2.46326025       -2.59535793       -0.86912155
 C            3.05597171       -1.52234056       -1.50613851
 C            0.50847672       -3.68729274       -0.19255104
 C            1.15820888       -3.04355392       -1.32040792
 C           -1.54403015       -3.31668500        1.07191146
 C           -0.87398608       -3.72407909       -0.15060553
 C           -3.31880652       -1.56901450        1.17993262
 C           -2.87117675       -2.86045900        0.69952933
 C           -3.98170542       -0.90964855        0.07209242
 C           -3.30037181        1.22673789        1.05166889
 C           -4.07505484        0.47317840        0.07765371
 C           -1.40985272        2.69116074        0.62908147
 C           -2.73899840        2.38181335        0.37912592
 C            0.84969287        3.01712319       -0.15850884
 C            1.78083184        2.56796469       -1.10075586
 C           -0.51746829        2.90690789       -0.43298858
 C            1.39235271        2.48260605       -2.43370312
 C            2.77330084        0.48315401       -2.68900472
 C            2.38564294       -0.91861798       -2.64672601
 C            1.90581349        1.39921076       -3.26021705
 C            0.41558510       -2.23429191       -2.17991081
 C            1.07359348       -1.28154024       -2.96010571
 C           -1.61555476       -3.14427430       -1.25508818
 C           -2.93625346       -2.83317742       -0.75512788
 C           -3.54160697       -1.57717188       -1.14450829
 C           -0.98158783       -2.23499197       -2.09823538
 C           -2.95827915       -0.82025560       -2.15802290
 C           -1.72107793       -1.20637543       -2.69377750
 C           -3.98976004        1.17625438       -1.19063174
 C           -3.23164629        2.39842422       -0.97773086
 C           -3.39942432        0.49014800       -2.32587014
 C           -0.94923439        2.83725438       -1.76497261
 C           -0.00575647        2.68056806       -2.77722637
 C           -2.27474439        2.51767378       -2.05537335
 C           -2.55483391        1.45134997       -3.00690689
 C            0.80515184        0.89064544       -4.05599069
 C            0.33389868       -0.46056064       -3.80499221
 C           -1.10978259       -0.40498200       -3.65521329
 C           -0.31711631        1.79037187       -3.88244000
 C           -1.52027344        0.98453430       -3.79883513
