   70
C70 / DATE: 7/ 1/2024 / Origin: Program Fullerene / C70 from database
 C            1.36413431       -0.15846206        4.30145535
 C            2.64047614       -0.48903160        3.71577356
 C            2.57845809       -1.86100633        3.24059424
 C            0.50529412       -1.32885029        4.19709285
 C            1.26211870       -2.38917441        3.55758619
 C           -0.75039807       -0.90517263        3.60029079
 C            0.63257246        0.97463851        3.76677096
 C           -0.73566522        0.54501153        3.55189241
 C            1.21877774        1.81397884        2.81743871
 C            3.12362954        0.33098131        2.62713205
 C            2.52112648        1.55293690        2.34752618
 C            3.02942647       -1.87975252        1.85560110
 C            3.45089444       -0.53744901        1.50768622
 C            2.31677296       -2.62195083        0.92566613
 C            0.62667206       -3.17997482        2.61164775
 C            1.33193274       -3.49385208        1.38418310
 C           -1.26804553       -1.61450361        2.51682452
 C           -0.74130972       -2.86614372        2.22178596
 C           -2.02003725       -0.93196073        1.55572018
 C           -1.46873955        1.17725741        2.56364765
 C           -2.32715899        0.40933745        1.78109720
 C            0.36977942        2.66034535        2.09127863
 C           -1.00346263        2.39153215        2.06338566
 C            0.91021313        3.56977974        1.18605453
 C            2.95329569        2.17389101        1.18288475
 C            2.24726706        3.33634024        0.69431486
 C            3.23766024       -0.05597932        0.21685134
 C            3.27645721        1.32678708        0.04366350
 C            2.27884712       -2.19240607       -0.40177134
 C            2.53715571       -0.84943122       -0.70427217
 C            1.65107504       -3.00182997       -1.34381620
 C            0.33210849       -3.97439144        0.45522587
 C           -0.94641985       -3.43215178        0.90231112
 C            0.62477442       -3.93487512       -0.89630723
 C           -2.24518742       -1.49419604        0.28821391
 C           -1.75880890       -2.77072593       -0.01517186
 C           -2.91081931       -0.75063329       -0.69748311
 C           -3.21197471        1.05764212        0.93362974
 C           -3.50749139        0.46279363       -0.35617511
 C           -1.83591750        3.11950183        1.21769908
 C           -3.05721685        2.48902813        0.74386210
 C            0.11580619        4.01000452        0.05274422
 C           -1.25805452        3.84982368        0.10205530
 C            2.16895486        3.22962149       -0.75322105
 C            2.66729658        1.91947413       -1.12765146
 C            0.82002776        3.59568931       -1.14879220
 C            1.95882522       -0.26241905       -1.84206672
 C            1.88463790        1.12647691       -1.94793420
 C            1.21146637       -2.42607852       -2.60074723
 C            1.31106672       -1.05225714       -2.79848116
 C           -0.48788387       -3.82704439       -1.81527496
 C           -1.69893842       -3.17874761       -1.34487865
 C           -0.02166737       -3.09469556       -2.97378703
 C           -2.75840287       -1.08115125       -2.04851227
 C           -2.13929691       -2.27901255       -2.39275534
 C           -1.12243510       -2.28097103       -3.44179724
 C           -2.83278843       -0.07789269       -3.01402527
 C           -3.56413062        1.53492180       -1.33943126
 C           -3.17926895        2.76615814       -0.67511354
 C           -1.95825785        3.42685146       -1.09897985
 C           -3.06220834        1.29424374       -2.60778281
 C            0.15395622        2.80394655       -2.08103199
 C            0.82421790        1.70725494       -2.63638762
 C           -1.24108440        2.88458769       -2.16394451
 C           -1.92114103        2.07544388       -3.07134910
 C            0.45925585       -0.44540788       -3.72861074
 C           -0.81347674       -1.07928326       -4.05665032
 C           -1.82754139       -0.04545599       -4.05833935
 C            0.23512063        0.98942031       -3.66416584
 C           -1.15632226        1.23861996       -3.97487901
