   70
C70 / DATE: 7/ 1/2024 / Origin: Program Fullerene / C70 from database
 C            1.33709666       -0.22578855        4.46180125
 C            2.57523074       -0.49133010        3.77036748
 C            2.50739894       -1.84006297        3.22791124
 C            0.49263849       -1.40667734        4.34152423
 C            1.17849542       -2.36050984        3.49061078
 C           -0.83443198       -0.94625678        3.96485230
 C            0.53877270        0.90934541        4.04398441
 C           -0.84101167        0.48816814        4.18401139
 C            0.90444835        1.64584653        2.91270408
 C            2.96825152        0.38943734        2.68988555
 C            2.17630831        1.48496700        2.34275505
 C            2.99027968       -1.78638933        1.85655781
 C            3.50081778       -0.44806071        1.63052538
 C            2.26239343       -2.39964658        0.84146270
 C            0.47827911       -2.96224491        2.45580107
 C            1.11936969       -3.13284574        1.16145841
 C           -1.44390272       -1.45829047        2.81720142
 C           -0.90776711       -2.58669804        2.20784206
 C           -2.37922299       -0.67350795        2.13255095
 C           -1.81136001        1.23451298        3.54884320
 C           -2.76666129        0.53175258        2.71787055
 C           -0.08799748        2.36763367        2.23560784
 C           -1.38102701        2.37032084        2.75725897
 C            0.13000991        2.80049611        0.92278374
 C            2.47077090        2.12332505        1.14263479
 C            1.42527124        2.83489977        0.43087465
 C            3.50159290        0.04868556        0.33569700
 C            3.26430337        1.40981422        0.15400255
 C            2.43905489       -1.95855371       -0.47137464
 C            3.22652014       -0.82400554       -0.71449012
 C            1.58966293       -2.44466031       -1.46942827
 C            0.05901099       -3.25833788        0.17850005
 C           -1.17930999       -2.83227541        0.80715976
 C            0.30353132       -2.86029898       -1.12652260
 C           -2.64269198       -0.90936724        0.76913616
 C           -2.01226754       -1.97170504        0.10616445
 C           -3.47081043       -0.03419439        0.04346576
 C           -3.39817672        1.54966622        1.91147301
 C           -2.49752483        2.69734377        1.89381292
 C           -3.72271901        1.24236838        0.54006375
 C           -0.93679387        2.90672646        0.02331015
 C           -2.23720193        3.00906778        0.50468117
 C           -3.30861914        2.39065245       -0.24801374
 C           -0.73158233        2.65379205       -1.33817523
 C            1.64043783        2.64163190       -0.99340428
 C            2.87879640        1.90104554       -1.15905521
 C            0.54639965        2.35456787       -1.80556631
 C            3.34215810       -0.33418196       -2.01089199
 C            3.01230001        1.06054643       -2.25181642
 C            1.88243071       -2.18351557       -2.80308703
 C            2.79876690       -1.10585980       -3.11082217
 C            0.79103432       -2.10576011       -3.75681090
 C           -0.77674669       -2.45511082       -1.90952579
 C           -1.93051723       -1.96968741       -1.28457881
 C           -0.57252345       -2.21222743       -3.26421732
 C           -3.62672880       -0.21457841       -1.33056614
 C           -2.86315770       -1.24318522       -2.01174996
 C           -3.13866684        2.21182038       -1.60897791
 C           -1.82267526        2.46263488       -2.17993797
 C           -3.61463992        0.96698061       -2.17912534
 C           -1.33189192       -1.16215398       -3.91400018
 C           -2.51844521       -0.74432314       -3.33600518
 C           -1.67113039        1.59926859       -3.33646188
 C           -2.79718637        0.67833020       -3.33952334
 C            0.70989739        1.56209190       -2.95062185
 C            1.97962686        1.07537559       -3.27026742
 C            2.10579003       -0.17729767       -3.98951408
 C            0.90345177       -0.83098258       -4.45304928
 C           -0.41233565        1.09486553       -3.65129602
 C           -0.36287392       -0.14740979       -4.28827064
