   70
C70 / DATE: 7/ 1/2024 / Origin: Program Fullerene / C70 from database
 C            1.20278148       -0.15644769        4.31203269
 C            2.47485369       -0.47675180        3.71442580
 C            2.45064642       -1.88303556        3.33435923
 C            0.39842986       -1.36947515        4.33358538
 C            1.12250902       -2.39703516        3.61156129
 C           -0.94105909       -1.01073544        3.90061287
 C            0.39731919        0.88604674        3.71066463
 C           -0.97768267        0.43684919        3.76327033
 C            0.83161711        1.54787083        2.56238172
 C            2.90383068        0.27189646        2.54996234
 C            2.05324448        1.21132187        1.95878468
 C            2.97770247       -1.96971217        1.98227196
 C            3.58439570       -0.68155125        1.69869259
 C            2.22935454       -2.60003752        0.98626395
 C            0.46224363       -3.12160793        2.62976127
 C            1.10154628       -3.33469711        1.33858836
 C           -1.60196638       -1.79230310        2.95539688
 C           -0.95603698       -2.89065524        2.38783445
 C           -2.69893849       -1.23999022        2.30222141
 C           -1.88045344        0.99931034        2.87361021
 C           -2.90400772        0.19748699        2.37448099
 C           -0.11444261        2.26299107        1.83063067
 C           -1.47593492        2.10399229        2.12829523
 C            0.27256605        2.88393679        0.64499492
 C            2.30567393        1.60012564        0.63653143
 C            1.38658150        2.40193324       -0.04496804
 C            3.79348813       -0.33775729        0.37899596
 C            3.30725506        0.95015859       -0.08269252
 C            2.42690221       -2.23360080       -0.34853230
 C            3.41498146       -1.29379060       -0.64053121
 C            1.47187158       -2.55977117       -1.32345793
 C            0.05154842       -3.53568638        0.36084005
 C           -1.22476231       -3.25091122        1.00374537
 C            0.24896729       -3.12773751       -0.95062468
 C           -3.02947269       -1.66309922        0.94890300
 C           -2.21477230       -2.57909460        0.28945293
 C           -3.61030109        0.60495884        1.16902832
 C           -3.52808680       -0.49963602        0.22823506
 C           -2.42889823        2.72687774        1.33113313
 C           -3.43883972        1.89667987        0.69849193
 C           -0.59171300        3.78714116        0.03795846
 C           -2.00186257        3.70750209        0.35352474
 C           -0.49681316        4.00016591       -1.38859030
 C            1.46899512        2.52857826       -1.44228781
 C            0.52433169        3.28736669       -2.12871084
 C            3.19360333        0.85471388       -1.52536756
 C            3.35327786       -0.55173917       -1.88164119
 C            2.23672325        1.62254338       -2.17681955
 C            1.65140490       -2.12607945       -2.64045086
 C            2.61138735       -1.07185174       -2.92724947
 C            0.49036722       -1.91269189       -3.49142575
 C           -0.87825632       -2.91860951       -1.73901120
 C           -2.12068567       -2.52256113       -1.09933108
 C           -0.76878062       -2.18070766       -2.98184496
 C           -3.10170049       -0.27417050       -1.07944414
 C           -2.62544183       -1.35422781       -1.80777302
 C           -1.77110455       -1.12206338       -2.95417081
 C           -3.29319120        2.09669463       -0.72955907
 C           -2.70533881        3.41107596       -0.88460296
 C           -1.78117587        3.62993590       -1.96899738
 C           -2.85100899        1.03124759       -1.51816055
 C           -0.13594008        2.69216190       -3.27573683
 C           -1.41585631        0.18084490       -3.28902992
 C           -1.52292576        2.54342508       -2.88955484
 C           -2.00718858        1.25966271       -2.62146627
 C            1.80338073        1.23045673       -3.44375628
 C            1.99474087       -0.14772907       -3.85842518
 C            0.69156559       -0.67750896       -4.22320655
 C            0.48100727        1.62341305       -3.89718906
 C           -0.27645612        0.39569411       -4.06691417
