   70
C70 / DATE: 7/ 1/2024 / Origin: Program Fullerene / C70 from database
 C            1.31992860       -0.12654723        5.16109294
 C            0.53156846       -1.26911504        4.72791091
 C            1.39413057       -2.11433101        3.94050082
 C            2.54765079       -0.12279800        4.38449469
 C            2.65536242       -1.40792215        3.74229709
 C            2.54557642        1.06080032        3.54941411
 C            0.57557924        1.07167035        4.81855625
 C            1.36790268        1.84931714        3.88445691
 C           -0.68195950       -0.76240076        4.11741024
 C           -0.74750724        0.66165729        4.40546481
 C           -1.08357112       -1.21622346        2.85558169
 C            0.93609998       -2.54598709        2.63478698
 C           -0.30355339       -2.13950200        2.14283921
 C            2.94655112       -1.44589787        2.32315544
 C            2.07474103       -2.45111790        1.75201468
 C            2.93498643        0.98344232        2.21238132
 C            3.14974963       -0.26533951        1.59940725
 C            2.64040883        2.08530876        1.42083743
 C            0.71792095        2.54544748        2.86390241
 C            1.44735820        2.86012126        1.72019877
 C           -1.41781027        1.47148968        3.50765690
 C           -0.67705715        2.50747116        2.79252025
 C           -2.05957096       -0.48663928        2.17474557
 C           -2.28353773        0.84134597        2.53440819
 C           -2.47744043       -0.89717194        0.91018981
 C           -0.53947854       -2.30924989        0.77575534
 C           -1.74108199       -1.86978888        0.23169388
 C            1.83463034       -2.37412617        0.39578902
 C            0.53744450       -2.57112413       -0.07539171
 C            3.12285182       -0.36775411        0.19905488
 C            2.68235930       -1.57871220       -0.35584888
 C            2.75948041        1.99229176       -0.01509113
 C            3.14660196        0.79331826       -0.58835559
 C            0.76250370        3.12228782        0.46120048
 C            1.64668373        2.71680618       -0.61030460
 C           -1.34717430        2.70587351        1.51134317
 C           -2.49282891        1.81409707        1.48291454
 C           -0.59587839        2.87080663        0.34971991
 C           -3.24338513       -0.00402491        0.16450412
 C           -2.92524875        1.34720886        0.25678457
 C           -3.80200492       -0.44957580       -1.02202425
 C           -2.01142855       -2.10666336       -1.11844684
 C           -3.22124965       -1.63079356       -1.62988155
 C            0.33849884       -2.57159364       -1.45773496
 C           -0.95313837       -2.44373354       -1.97824767
 C            2.63598511       -1.74246761       -1.72879603
 C            1.44438067       -2.35831778       -2.29068438
 C            2.99781795        0.68906233       -1.96733633
 C            2.98927383       -0.62326997       -2.56836952
 C            1.11366115        2.24210508       -1.80304978
 C            1.94842610        1.47439445       -2.60551991
 C           -1.12577614        2.43636420       -0.87069808
 C           -2.44455046        1.98075887       -0.88389241
 C           -0.27189097        2.10085585       -1.93506998
 C           -3.96220462        0.52930814       -2.08013490
 C           -3.03629218        1.64721413       -2.09324232
 C           -3.42665646       -1.52386908       -3.06165894
 C           -3.85785754       -0.16464972       -3.34670976
 C           -1.09809557       -2.34133328       -3.36501581
 C           -2.32074773       -1.81345273       -3.93906692
 C            1.25763488       -1.80304419       -3.62075588
 C            2.06591520       -0.59844647       -3.68728541
 C            1.38375519        0.68540134       -3.68254000
 C           -0.02642790       -1.73791961       -4.12876319
 C           -0.80249890        1.50187709       -3.08672317
 C           -2.18738176        1.48755480       -3.25878590
 C           -2.80034922        0.47673923       -4.10613159
 C           -1.96639190       -0.57754736       -4.63089131
 C            0.01046657        0.69435992       -3.89767408
 C           -0.53185997       -0.43430601       -4.51486177
