   70
C70 / DATE: 7/ 1/2024 / Origin: Program Fullerene / C70 from database
 C            1.65600562       -0.05868742        4.60699623
 C            0.82830048       -1.21768728        4.33512012
 C            1.39759245       -1.92470682        3.20073582
 C            2.69352324       -0.01034209        3.59222938
 C            2.54567109       -1.16674581        2.73512817
 C            2.64914502        1.29625098        2.97431180
 C            0.82429445        1.12112753        4.44374930
 C            1.47166439        1.98792535        3.48374177
 C           -0.54708090       -0.76887617        4.24410707
 C           -0.52755984        0.68438800        4.16355374
 C           -1.39937803       -1.46572564        3.40268321
 C            0.53698843       -2.47252314        2.25389430
 C           -0.83705732       -2.45300028        2.49285474
 C            0.98380614       -2.62613021        0.94222039
 C            2.71226880       -1.00084089        1.36638914
 C            2.10893110       -1.91741245        0.50728495
 C            2.93505306        1.40327654        1.61655535
 C            3.12592117        0.23693452        0.86257064
 C            2.51809866        2.56535874        0.97298116
 C            0.68728241        2.69836707        2.58148065
 C            1.33238246        3.23880114        1.47204776
 C           -1.23724273        1.31572997        3.14412867
 C           -0.68969139        2.44696548        2.51527618
 C           -2.40785600       -0.73235876        2.65959774
 C           -2.33164950        0.65264808        2.57543333
 C           -1.75289591       -2.57688263        1.37041182
 C           -2.71541664       -1.49269109        1.45779447
 C            0.11534155       -3.16565366       -0.00081718
 C           -1.25033344       -2.91166386        0.12450711
 C            0.62518260       -3.49405652       -1.24886830
 C            2.44163482       -1.90253018       -0.84916981
 C            1.78910816       -2.76790712       -1.72290126
 C            3.37494363        0.34613806       -0.50289208
 C            3.06363655       -0.77578285       -1.37600938
 C            2.48983677        2.62554930       -0.47744510
 C            3.00391061        1.56541560       -1.20325633
 C            0.56193445        3.69449564        0.32758367
 C            1.21090369        3.19095226       -0.87213821
 C           -1.45646208        3.15608351        1.59395603
 C           -0.81930001        3.68965402        0.40115350
 C           -3.09009438        1.28110259        1.59730236
 C           -2.74582351        2.62853295        1.19789928
 C           -3.08276484       -0.81127738        0.29673517
 C           -3.45334351        0.53191992        0.40140964
 C           -1.97101378       -2.52015177       -0.99894583
 C           -2.70451502       -1.32809600       -0.95150536
 C           -0.29561391       -3.63830388       -2.36315411
 C           -1.62484138       -3.07590932       -2.22495944
 C            1.50277481       -2.31911487       -3.07772313
 C            0.32215492       -3.03572503       -3.53176294
 C            2.59643778       -0.23649080       -2.64421500
 C            2.35332123        1.18161856       -2.44391128
 C            1.69475115       -0.97462969       -3.40413837
 C            0.45900579        2.55553179       -1.85994030
 C            1.10428981        1.70711729       -2.76704638
 C           -1.58067465        3.23324382       -0.74714991
 C           -2.83416532        2.70199167       -0.25089346
 C           -3.27208736        1.40881243       -0.74119630
 C           -0.93862900        2.55344739       -1.77894161
 C           -2.73326225       -0.48759951       -2.07042017
 C           -2.67306208        0.88730388       -1.87675753
 C           -1.66402993        1.61667807       -2.51230865
 C           -1.91790678       -2.34490439       -3.44007344
 C           -0.70932244       -2.32072398       -4.25247415
 C           -2.40621759       -0.98663077       -3.32538315
 C            0.74098437       -0.28145866       -4.15475363
 C            0.35853156        1.06383524       -3.74974322
 C           -1.08959095        1.09846462       -3.66458057
 C           -0.45968412       -0.94686369       -4.63281713
 C           -1.59704663       -0.15557739       -4.19553194
