   70
C70 / DATE: 7/ 1/2024 / Origin: Program Fullerene / C70 from database
 C            1.36543637       -0.04848588        4.06206316
 C            2.56504000       -0.27238029        3.27328735
 C            2.54178309       -1.66482506        2.84605446
 C            0.51145797       -1.21522215        3.90807140
 C            1.18080215       -2.13738747        3.01220088
 C           -0.81785283       -0.75434283        3.55367952
 C            0.56167573        1.12924009        3.80451503
 C           -0.80381847        0.69782191        3.54885462
 C            1.09802184        2.14974205        3.03855334
 C            3.01418036        0.71488124        2.39260181
 C            2.34439114        1.93636848        2.31392994
 C            3.86784455        0.35606688        1.35156955
 C            3.24192494       -2.03104743        1.70859640
 C            4.11981105       -1.05168556        1.10054875
 C            2.53374126       -2.71335606        0.63565105
 C            0.48062950       -2.61248037        1.90884057
 C            1.15908500       -2.90438188        0.72086152
 C           -1.51182800       -1.40890653        2.54357748
 C           -0.90819636       -2.48886709        1.88718404
 C           -2.56748140       -0.73584886        1.93003174
 C           -1.57634787        1.36814530        2.60120259
 C           -2.59554992        0.66208741        1.94958308
 C            0.21827227        2.92450181        2.18563216
 C           -1.12864261        2.59287100        2.08385235
 C            2.23041203        2.60181142        1.02382654
 C            0.94163405        3.25961141        0.96996133
 C            3.73093603        1.01744624        0.06142483
 C            2.72829468        1.97227765       -0.10769986
 C            4.09917022       -1.26346665       -0.33511429
 C            3.09378572       -2.27087543       -0.62773112
 C            3.98908753        0.03247856       -0.97753223
 C            2.23937624       -2.07058056       -1.70852847
 C            0.43197535       -3.08512986       -0.45566408
 C            0.94625962       -2.60110752       -1.66573121
 C           -1.60675115       -3.15303866        0.88607267
 C           -0.91163699       -3.44088467       -0.35533263
 C           -3.39577692       -1.43150855        1.05422759
 C           -2.94998696       -2.71749374        0.55709093
 C           -4.00996541       -0.72866736       -0.05839679
 C           -3.48140539        1.34080248        1.11772328
 C           -4.05148464        0.65297794       -0.02758321
 C           -1.84453587        3.20533745        1.06095916
 C           -3.13778238        2.67690099        0.68406168
 C            0.23857907        3.30800632       -0.22778607
 C           -1.13224987        3.56448749       -0.15637015
 C            2.00686373        2.02710795       -1.30496499
 C            0.77327549        2.69296949       -1.36585619
 C            3.28275615        0.11379263       -2.16463545
 C            2.53515064       -1.04998573       -2.61541476
 C            2.43306816        1.26515213       -2.39287248
 C            1.50982109       -0.56837767       -3.52676172
 C            1.48253641        0.88430924       -3.42233022
 C            0.09880752       -2.40776197       -2.75567416
 C            0.32250078       -1.27694830       -3.63819324
 C           -1.82317663       -3.16998464       -1.45498839
 C           -3.07438753       -2.69915020       -0.89125440
 C           -3.56582105       -1.38652801       -1.27401308
 C           -1.33517594       -2.55261173       -2.59396583
 C           -0.93893466       -0.56304756       -3.77166143
 C           -2.87355442       -0.65557318       -2.23904795
 C           -1.95294657       -1.31637993       -3.05450198
 C           -3.64472127        1.38916954       -1.21102391
 C           -3.23154095        2.70952174       -0.76735587
 C           -1.99719500        3.26973821       -1.28675966
 C           -2.90865764        0.74349866       -2.20412073
 C           -0.00228243        2.60053746       -2.52255784
 C            0.27602588        1.56060330       -3.49665444
 C           -0.95937470        0.82244616       -3.71866762
 C           -1.44448571        2.71656048       -2.42902998
 C           -2.01086604        1.48904826       -2.97051436
