   70
C70 / DATE: 7/ 1/2024 / Origin: Program Fullerene / C70 from database
 C            1.59453743       -0.08795969        4.48863421
 C            0.74858043       -1.24616823        4.27910988
 C            1.49254493       -2.17019725        3.45128993
 C            2.62915475       -0.11615778        3.46840236
 C            2.56641791       -1.40950439        2.82774831
 C            2.47596427        1.06568689        2.64400695
 C            0.78478534        1.08605833        4.24747528
 C            1.48596265        1.91328590        3.28408334
 C           -0.54346790       -0.78631708        3.79278220
 C           -0.55888455        0.65702215        3.89849406
 C           -1.08230241       -1.39806368        2.66384282
 C            0.76290524       -3.02405832        2.64139955
 C           -0.61759774       -2.66781006        2.33514981
 C            1.36096696       -3.45975029        1.39338148
 C            2.70559320       -1.48744233        1.44732776
 C            2.38691445       -2.70020958        0.84163439
 C            2.43742585        0.92893905        1.25548695
 C            2.68881593       -0.31570263        0.67091719
 C            1.82386256        1.93354145        0.49889495
 C            0.70825241        2.71041665        2.46361667
 C            1.17843075        2.97093476        1.18058388
 C           -1.21327577        1.39887399        2.92926825
 C           -0.67225276        2.64268951        2.63633262
 C           -1.71407595       -0.61655204        1.68502401
 C           -1.93149563        0.74743225        1.92075116
 C           -2.02721528       -1.16868848        0.43297323
 C           -0.93089768       -3.22778632        1.04048702
 C            0.26943269       -3.88236341        0.53797075
 C           -1.71882036       -2.50933594        0.15412234
 C            0.47533324       -3.93120578       -0.83594703
 C            2.66257239       -2.85431059       -0.50664028
 C            1.75969292       -3.65381821       -1.31798735
 C            2.66519123       -0.42782446       -0.71791942
 C            2.97468343       -1.66488394       -1.27347853
 C            1.53809187        1.70443187       -0.85491416
 C            1.96237779        0.52339957       -1.46924677
 C            0.66394474        2.55623260       -1.53972156
 C            0.51549608        3.95766512        0.46269301
 C            0.32242615        3.77903697       -0.96355108
 C           -1.44848055        3.51194058        1.89801722
 C           -0.74777334        4.41855544        1.01142760
 C           -2.54863193        1.53910196        0.94446714
 C           -2.53130171        2.93016248        1.12751519
 C           -2.55076863       -0.35201054       -0.57724790
 C           -2.85249728        0.98897163       -0.31139415
 C           -2.44865753       -0.75290090       -1.91591641
 C           -1.76105797       -2.96971349       -1.15698710
 C           -0.63886008       -3.75434343       -1.65634817
 C           -2.19226984       -2.08376150       -2.21592613
 C           -0.48067719       -3.46618305       -3.07020553
 C           -1.38326662       -2.37709900       -3.39475902
 C            1.96764940       -3.23380709       -2.69359519
 C            2.63215391       -1.93777343       -2.65253491
 C            0.83077676       -3.12245653       -3.58068540
 C            1.41570408        0.18525202       -2.71278659
 C           -0.59472822       -1.29847922       -3.96558446
 C            1.79685922       -0.98987632       -3.35324056
 C            0.77981344       -1.74948905       -4.05723986
 C           -0.07607352        2.06167617       -2.62291506
 C           -2.05852407        0.18937222       -2.85896227
 C            0.22673199        0.79160650       -3.10870701
 C           -0.84451431       -0.01879649       -3.49491214
 C           -3.08885993        1.82127863       -1.41059419
 C           -1.39170377        2.48923382       -2.80347521
 C           -2.43286320        1.49826760       -2.65620370
 C           -0.93964918        4.41268219       -1.31315418
 C           -1.63973536        4.73082862       -0.08363239
 C           -2.77706162        3.82817382        0.01619387
 C           -1.86871505        3.67858592       -2.13589091
 C           -2.98308944        3.26146388       -1.28920080
