   70
C70 / DATE: 7/ 1/2024 / Origin: Program Fullerene / C70 from database
 C            1.58851369       -0.30338398        4.95719937
 C            0.71898239       -1.45981687        4.89960804
 C            1.23773180       -2.34372867        3.87225170
 C            2.61653234       -0.47045816        3.94165816
 C            2.32827039       -1.67236884        3.19412620
 C            2.69391108        0.76654797        3.20817099
 C            0.79987457        0.85711110        4.58213976
 C            1.58165102        1.60841750        3.63078529
 C           -0.59028349       -1.01021255        4.45370316
 C           -0.50632703        0.40431500        4.15738531
 C            0.11311469       -2.75832590        3.06882305
 C           -1.01094150       -1.89814091        3.39075506
 C            0.32290960       -3.00513670        1.72525208
 C            2.29280391       -1.60774310        1.80007836
 C            1.48266382       -2.51390487        1.11181410
 C            2.97852038        0.72907537        1.84780699
 C            2.75422832       -0.46204098        1.13211087
 C            2.82031044        1.93610863        1.18575604
 C            0.92131871        2.31947720        2.63684221
 C            1.73120944        2.79264441        1.61820386
 C           -0.98896179        0.85099112        2.93012786
 C           -0.40049151        1.96703547        2.31859502
 C           -1.72992189       -1.37401851        2.31817588
 C           -1.82015677        0.01564148        2.17462323
 C           -0.81161798       -3.10120681        0.94171362
 C           -1.82437914       -2.16087648        1.16951327
 C           -0.63459340       -3.63080823       -0.32181492
 C            1.56787738       -2.57737367       -0.28082868
 C            0.64121992       -3.37680890       -0.96064391
 C            2.69504422       -0.42978939       -0.27249667
 C            2.23490697       -1.56021122       -0.96881177
 C            2.86078255        1.96789953       -0.25421328
 C            2.92093008        0.77837353       -0.95488581
 C            1.12224737        3.36431415        0.44291403
 C            1.93675016        2.99777327       -0.70346698
 C           -0.98600576        2.46936051        1.14979682
 C           -0.25353224        3.32600604        0.31409328
 C           -2.41787099        0.53270432        1.02696977
 C           -2.14384509        1.85310794        0.66504748
 C           -2.58905630       -1.68752340        0.10283170
 C           -2.97299737       -0.34654758        0.09050610
 C           -1.67952951       -3.46473567       -1.30404648
 C           -2.66614398       -2.43289216       -1.07319520
 C            0.39195862       -3.17503824       -2.37903605
 C           -1.04681822       -3.19695401       -2.58456765
 C            2.22618683       -1.57015462       -2.36369581
 C            1.14248139       -2.23479071       -3.06191583
 C            2.70473627        0.86095854       -2.32294984
 C            2.48646431       -0.34431134       -3.08362161
 C            1.32529324        2.86497938       -1.95106289
 C            1.79800517        1.88388807       -2.82621534
 C           -0.76411580        3.67069740       -0.92942507
 C            0.02255896        3.34550890       -2.11215946
 C           -2.84315002        2.43691634       -0.38590409
 C           -2.15289918        3.39181381       -1.22386067
 C           -3.61682125        0.15959931       -1.03658571
 C           -3.62675977        1.59147262       -1.26337429
 C           -2.86423563       -1.75055423       -2.33970842
 C           -1.69183346       -2.02561112       -3.15318675
 C           -3.36954734       -0.46521856       -2.32368192
 C            0.45254712       -1.21653474       -3.84054057
 C            1.36357225       -0.10659977       -3.98094535
 C            0.86798924        1.22808799       -3.73234613
 C           -0.89772168       -0.96993489       -3.60070717
 C           -0.86927308        2.67966242       -3.04663468
 C           -2.22533907        2.91271833       -2.59487942
 C           -3.16114401        1.81621368       -2.62585031
 C           -2.71554301        0.53699176       -3.14021998
 C           -0.49479016        1.44155390       -3.56273126
 C           -1.37745122        0.34578875       -3.49916867
