   70
C70 / DATE: 7/ 1/2024 / Origin: Program Fullerene / C70 from database
 C            1.03228295       -0.11182221        4.62040884
 C            2.29439308       -0.40119147        3.97947397
 C            2.22402349       -1.76159298        3.46968660
 C            0.20132192       -1.30098140        4.50767860
 C            0.84272863       -2.18176863        3.55184006
 C           -1.15137804       -0.86369871        4.24587759
 C            0.24869290        1.00546782        4.13518022
 C           -1.13766985        0.58787330        4.15526580
 C            0.68772205        1.74875023        3.04276891
 C            2.73024688        0.44496290        2.88574370
 C            1.93544546        1.49884464        2.45095161
 C            2.86054068       -1.77089109        2.16851110
 C            3.32340906       -0.41884417        1.88819309
 C            2.27654545       -2.48980902        1.13136326
 C            0.18881167       -2.52063208        2.36836144
 C            0.95225713       -2.93010274        1.26841199
 C           -1.82329025       -1.35832220        3.06236649
 C           -1.17869218       -2.24470853        2.20211198
 C           -1.98388346        0.96783708        3.03592483
 C           -2.54362938       -0.24695950        2.47581217
 C           -0.25761599        2.48032336        2.32737726
 C           -1.53982036        1.94508210        2.15553164
 C            0.20632952        3.42460350        1.42239572
 C            2.21133360        2.05449919        1.20089810
 C            1.50528068        3.19447193        0.81947866
 C            3.35193677        0.00597894        0.56222807
 C            2.88866396        1.28820672        0.23990797
 C            2.79504889       -2.27196020       -0.14093885
 C            3.38544637       -0.97620796       -0.42777883
 C            2.05849785       -2.69927775       -1.31622484
 C            0.30070945       -3.50642519        0.18276046
 C            0.86502174       -3.37724585       -1.15154700
 C           -1.76608065       -2.46614500        0.95571976
 C           -1.13464488       -3.33337702        0.07179056
 C           -2.79905944       -0.29852472        1.11172506
 C           -2.68779900       -1.52920519        0.47162361
 C           -2.14780041        2.01940729        0.90260493
 C           -2.71591171        0.86971860        0.34615084
 C           -0.69042148        3.89819530        0.38670680
 C           -1.86838964        3.10724790        0.09066326
 C            1.42415457        3.57547070       -0.58043422
 C            0.07622428        4.03990847       -0.83910512
 C            2.89649131        1.69202762       -1.09534249
 C            2.05502974        2.79228620       -1.53069807
 C            3.06928416       -0.63883054       -1.80489767
 C            2.13951712       -1.63735376       -2.30617051
 C            2.88027748        0.68795143       -2.14481550
 C            0.98946226       -1.23526543       -2.98624778
 C           -0.22637764       -3.11692032       -2.07168700
 C           -1.46979952       -3.29751572       -1.33968009
 C           -0.12821725       -2.08384408       -3.00398848
 C           -3.18296912       -1.63563925       -0.82183884
 C           -2.58913322       -2.58893781       -1.74564900
 C           -2.97703127        0.80047146       -1.02942600
 C           -3.44430468       -0.40812616       -1.55420622
 C           -1.94431700        2.95465751       -1.34716954
 C           -0.68563647        3.42560457       -1.90974652
 C           -2.52322463        1.81439297       -1.88863443
 C            1.32403076        2.35575876       -2.71574889
 C            1.81972250        1.03487930       -3.07341498
 C            0.91375105        0.06855313       -3.50055578
 C           -0.03778093        2.63875690       -2.86126789
 C           -2.17590098        1.50904540       -3.20238455
 C           -0.26118741        0.52044886       -4.08563073
 C           -0.81943393        1.78633418       -3.63867459
 C           -1.28433797       -1.70891919       -3.68228707
 C           -2.57070714       -1.97126662       -3.05975239
 C           -3.27553227       -0.70498294       -2.96332229
 C           -1.36185772       -0.39752007       -4.28436296
 C           -2.57079953        0.24679725       -3.78986582
