   70
C70 / DATE: 7/ 1/2024 / Origin: Program Fullerene / C70 from database
 C            1.48826519        0.16840094        4.86528704
 C            0.71497934       -1.05525876        4.77204635
 C            1.56792160       -2.06326599        4.18542282
 C            2.69873937       -0.01550005        4.07991101
 C            2.76394969       -1.40312650        3.68538588
 C            2.70528393        0.99320838        3.04074764
 C            0.71533630        1.22630712        4.23937202
 C            1.55189646        1.84686297        3.23794266
 C           -0.53811994       -0.74598116        4.10476220
 C           -0.55173305        0.67580278        3.80581508
 C           -1.03942102       -1.61796092        3.14314724
 C            1.02643836       -2.85398489        3.10236750
 C           -0.33048169       -2.78864229        2.81715006
 C            2.88022765       -1.71693645        2.27245470
 C            1.94863236       -2.78814628        1.98134685
 C            3.02539021        0.64807862        1.72856394
 C            3.02097021       -0.70160723        1.33650938
 C            2.78830315        1.61483098        0.74872707
 C            0.94994390        2.34396928        2.09392951
 C            1.76383602        2.53965536        0.98412978
 C           -1.06404709        1.09118635        2.57812060
 C           -0.41418264        2.11051228        1.87676577
 C           -1.97601351       -1.11242431        2.23854836
 C           -1.92710486        0.24163308        1.88531554
 C           -2.67395309       -2.00620369        1.44300789
 C           -0.73170575       -3.50897651        1.70105756
 C           -2.05755578       -3.28455965        1.17111704
 C            1.41657530       -2.90600143        0.69392573
 C            0.19217794       -3.56226530        0.57518889
 C            2.76225716       -1.01454758        0.00507129
 C            1.79659783       -1.98381291       -0.29434025
 C            3.15496895        1.30904349       -0.55781988
 C            3.12160944       -0.08349863       -0.95568327
 C            2.65391312        2.10377817       -1.66496301
 C            1.23569357        3.28504752       -0.05961312
 C            1.73757420        3.11202847       -1.41048342
 C           -0.98094063        2.57673999        0.69043695
 C           -0.20724196        3.39675866       -0.13353573
 C           -2.49414529        0.68268744        0.68258048
 C           -2.09345814        1.92214710        0.15602398
 C           -3.26956316       -1.54289542        0.20966356
 C           -3.30939350       -0.18244338       -0.06638761
 C           -1.98175742       -3.43949969       -0.26912526
 C           -0.58436978       -3.42280259       -0.64035893
 C           -2.84308103       -2.43735164       -0.85717886
 C            1.06715705       -1.89465573       -1.49208847
 C           -0.18234337       -2.51017908       -1.60203435
 C            2.53780354       -0.15613538       -2.27846297
 C            2.44507147        1.20463361       -2.78792002
 C            1.50646368       -1.05759074       -2.52222922
 C            1.48183677        1.50360831       -3.74191756
 C            0.62879950        3.33259112       -2.32689106
 C           -0.56473508        3.57764153       -1.52940095
 C            0.54049593        2.58859836       -3.49905379
 C           -2.64150399        2.39247753       -1.03657789
 C           -1.79741060        3.12110465       -1.96836016
 C           -3.64421492        0.15632333       -1.37261495
 C           -3.48791457        1.52021564       -1.81523077
 C           -2.46806247       -1.85688974       -2.06335052
 C           -1.13619309       -1.98901641       -2.48047069
 C           -3.17705819       -0.71933808       -2.43444903
 C            0.69697619       -0.86614838       -3.64155899
 C            0.74826758        0.40604828       -4.34326740
 C           -0.69170308       -1.28896271       -3.59512282
 C           -0.76259708        2.17432049       -3.99551824
 C           -1.91008576        2.47807535       -3.26921393
 C           -2.97579312        1.49385696       -3.17724102
 C           -2.70378746        0.10796490       -3.52730327
 C           -0.61590030        0.84821090       -4.57395423
 C           -1.50678056       -0.21774047       -4.14812073
