   70
C70 / DATE: 7/ 1/2024 / Origin: Program Fullerene / C70 from database
 C            1.27001465        0.17029556        4.74102124
 C            2.54076178        0.01232638        4.06516485
 C            2.57031917       -1.31733236        3.47494285
 C            0.47388369       -1.01587648        4.47037654
 C            1.24940101       -1.88808968        3.60171663
 C           -0.84128390       -0.58447740        4.01825335
 C            0.45858558        1.32706843        4.42828632
 C           -0.87882217        0.86019549        4.09627706
 C            0.88061457        2.22720805        3.36892546
 C            2.91997153        0.95701787        3.02724439
 C            2.10027156        2.04182836        2.71203435
 C            3.14173802       -1.20149723        2.15072686
 C            3.52303008        0.18786945        1.95036344
 C            2.56291305       -1.88974014        1.09020958
 C            0.62477150       -2.40489886        2.47305820
 C            1.32219448       -2.52085442        1.26109495
 C           -1.38671491       -1.20606637        2.90005636
 C           -0.76295864       -2.35718330        2.43484766
 C           -2.16529174       -0.46408899        2.00278652
 C           -1.33242145        1.59734131        2.93299298
 C           -0.30144870        2.55771944        2.58743211
 C           -1.96770213        0.91484673        1.90394344
 C           -0.14179283        2.91907792        1.25494837
 C            2.28268354        2.66651037        1.48344051
 C            1.13148857        3.25122832        0.81588700
 C            3.51598460        0.70343820        0.65701073
 C            3.09360405        2.01536165        0.46343214
 C            2.97432711       -1.53630214       -0.18884931
 C            3.48185811       -0.19074321       -0.41080158
 C            2.16520550       -1.90572153       -1.33397974
 C            0.62866019       -3.00400479        0.14402005
 C            0.93965416       -2.50990878       -1.12762829
 C           -1.41103076       -3.09664653        1.46630551
 C           -0.61645561       -3.58881168        0.35910650
 C           -2.76958258       -1.14238174        0.93691368
 C           -2.60618516       -2.52911398        0.88292766
 C           -3.13688060       -0.43231781       -0.21924564
 C           -2.01337742        1.50824496        0.65053608
 C           -1.08157824        2.49793784        0.31403061
 C           -2.78592286        0.91649244       -0.34188511
 C           -0.92513902        2.87049060       -1.02230258
 C            1.40731064        3.25828312       -0.60661867
 C            2.58900396        2.43758692       -0.83464422
 C            0.35715024        3.16522654       -1.50981373
 C            3.02775638        0.24583681       -1.72217979
 C            2.26990242       -0.84706091       -2.31858484
 C            2.60154224        1.55780267       -1.91631090
 C            1.18065728       -0.54561402       -3.13007612
 C           -0.05794859       -2.35720923       -2.09314006
 C           -0.01472674       -1.27097140       -2.98473506
 C           -1.52199120       -3.77702235       -0.75931646
 C           -2.81770026       -3.24713258       -0.35578242
 C           -1.18753165       -3.16479902       -2.02663214
 C           -3.62198302       -1.11361784       -1.33848564
 C           -3.36586809       -2.53202399       -1.48116764
 C           -2.42768704       -2.67818578       -2.58367011
 C           -1.18564587       -0.86063285       -3.65372074
 C           -3.39273356       -0.55384575       -2.65379498
 C           -2.40642309       -1.41747328       -3.28678682
 C           -2.93078236        1.57625042       -1.56214872
 C           -1.97271282        2.61456613       -1.90561280
 C           -3.22040784        0.81493342       -2.76883330
 C           -1.24603061        0.40559762       -4.22580615
 C           -1.70941865        2.51784825       -3.32900882
 C           -2.31800213        1.29001380       -3.80242779
 C            0.69952017        2.80552421       -2.80836914
 C            1.75623801        1.82703455       -2.99076371
 C            1.16379226        0.71500681       -3.71476705
 C           -0.33527061        2.51591411       -3.77677836
 C           -0.04735723        1.20172166       -4.33564555
