   70
C70 / DATE: 7/ 1/2024 / Origin: Program Fullerene / C70 from database
 C            1.43093291        0.05136641        5.09670515
 C            0.67082959       -1.18056408        4.96337096
 C            1.56204378       -2.18555388        4.43279167
 C            2.67114424       -0.12348852        4.36267559
 C            2.84283527       -1.54506322        4.15830382
 C            2.63053151        0.75816751        3.20397819
 C            0.67638568        1.10218517        4.43917424
 C            1.48207543        1.63364914        3.36093723
 C           -0.54044178       -0.87174758        4.22818250
 C           -0.62328165        0.56902655        4.09255490
 C           -0.92032301       -1.64733973        3.13338839
 C            1.16780691       -2.89845559        3.23315557
 C           -0.02960289       -2.58952588        2.58914381
 C            3.28404123       -1.99923130        2.85744017
 C            2.35530825       -3.02780957        2.41957522
 C            2.92932496        0.26794373        1.92889277
 C            3.38914107       -1.04077258        1.76929329
 C            2.41833430        0.93903050        0.81254536
 C            0.82416878        2.05142169        2.21400476
 C            1.49925158        1.97337699        1.00479802
 C           -1.23878067        1.05898062        2.94972849
 C           -0.56975281        2.01875281        2.18324192
 C           -1.94117906       -1.14554739        2.32107945
 C           -2.15959386        0.23758940        2.30802262
 C           -2.37448366       -1.92687587        1.25462105
 C           -0.17852915       -2.97282598        1.25243469
 C           -1.44090749       -2.87509068        0.68152635
 C            2.20901728       -2.88975001        0.98342000
 C            3.02217662       -1.76200796        0.56748651
 C            0.94428334       -3.00748737        0.41544520
 C            2.51458043        0.34310697       -0.45004318
 C            2.58863766       -1.04321776       -0.53461207
 C            2.03403840        1.03664435       -1.56218052
 C            0.90701936        2.56051839       -0.10540118
 C            1.43635208        2.27910787       -1.36030810
 C           -1.20448102        2.51591610        1.04464876
 C           -0.41636738        2.99983883       -0.00077419
 C           -2.94277479        0.81682991        1.31737170
 C           -2.49969403        2.08148217        0.76255623
 C           -3.13758030       -1.33185634        0.16963382
 C           -3.45021265        0.01206286        0.21935960
 C           -1.57078373       -2.81107889       -0.76356724
 C           -2.66380373       -1.90375774       -1.07681723
 C            0.80570241       -2.59844894       -0.91142626
 C            1.73107644       -1.67843127       -1.42140034
 C           -0.42466306       -2.76796874       -1.54817479
 C            1.73894567        0.32031768       -2.72740469
 C            1.47471797       -1.05086191       -2.63281236
 C            1.41847730        1.02068889       -3.88958111
 C            0.99449153        3.01543966       -2.45384081
 C            1.06119565        2.42247042       -3.77758573
 C           -1.05083836        3.51436562       -1.12790693
 C           -0.27989279        3.69643576       -2.34584200
 C           -3.00368562        2.15760980       -0.59854565
 C           -3.36316493        0.80690126       -0.99482309
 C           -2.33968865        2.96039679       -1.50919297
 C           -2.56407067       -1.12177764       -2.22584927
 C           -2.80576164        0.26066691       -2.15324321
 C           -0.55891624       -2.35315560       -2.86938744
 C            0.54369136       -1.64265601       -3.47697515
 C           -1.76172308       -1.62586500       -3.24232809
 C            0.50651119        0.43162086       -4.85151943
 C            0.00171861       -0.89968390       -4.59669665
 C           -1.43451344       -0.79248508       -4.37869929
 C           -0.23885646        2.59987708       -4.41226318
 C           -1.10769774        3.24909786       -3.45267015
 C           -2.20538762        2.49269740       -2.87517940
 C           -2.32470130        1.12732983       -3.14866401
 C           -0.64412564        1.31295642       -4.94042806
 C           -1.75652789        0.61451182       -4.31534424
