   70
C70 / DATE: 7/ 1/2024 / Origin: Program Fullerene / C70 from database
 C            1.43060148       -0.23287734        5.62608366
 C            0.58061757       -1.39285057        5.47188096
 C            1.17813137       -2.23606610        4.45141105
 C            2.53032436       -0.36661701        4.68273528
 C            2.24321354       -1.49429684        3.81573234
 C            2.71073752        0.92693067        4.07841710
 C            0.65958105        0.92696277        5.21321853
 C            1.55005655        1.74319477        4.42946971
 C           -0.69677409       -0.93680725        4.94643464
 C           -0.56784186        0.45644934        4.59051406
 C            0.10109503       -2.68075497        3.60952387
 C           -1.06154729       -1.85175890        3.89892651
 C            0.36188404       -2.91224170        2.26883679
 C            2.18881279       -1.31832897        2.42580235
 C            1.41089148       -2.19984498        1.65759132
 C            2.85058817        1.00227570        2.63769859
 C            2.66048540       -0.13036503        1.84427229
 C            1.05225674        2.29543015        3.19096318
 C            2.14912829        2.20169843        2.25581776
 C           -0.87760730        0.84695976        3.27965518
 C           -0.21859872        1.94966002        2.72002773
 C           -1.76452457       -1.37088519        2.80085110
 C           -1.61826012       -0.01586709        2.44780244
 C           -0.77035698       -3.14996183        1.51381578
 C           -1.91273920       -2.29346617        1.78006572
 C           -0.63857369       -3.26554373        0.08810099
 C            1.43253058       -2.08848951        0.25799388
 C            0.55641440       -2.87956081       -0.49645738
 C            2.45843668        0.08614117        0.47628964
 C            2.02470875       -0.96191007       -0.33102174
 C            1.81589654        2.34474124        0.93039624
 C            2.28870731        1.40021066        0.02518397
 C           -0.49711483        2.31317027        1.40173235
 C            0.55996005        2.86023255        0.67663520
 C           -1.94289432        0.40194554        1.14215842
 C           -1.51161927        1.65570133        0.69837063
 C           -2.43177393       -1.86521605        0.50726840
 C           -1.87335611       -2.76413712       -0.48150230
 C           -2.47039270       -0.51140817        0.21599077
 C           -1.84156013       -2.33885277       -1.79509136
 C            0.55995156       -2.77125837       -1.88019908
 C           -0.72788669       -2.68997505       -2.55123146
 C            1.90411544       -0.74849997       -1.70797281
 C            1.40663633       -1.77785413       -2.49930468
 C            1.99202891        1.63223066       -1.31880318
 C            1.94817248        0.55837518       -2.21027440
 C            0.33123717        3.27109955       -0.61575175
 C            1.26053222        2.78547527       -1.61425230
 C           -1.77375609        2.05489651       -0.62009267
 C           -0.98304434        3.06211654       -1.16937604
 C           -2.58832523       -0.14954675       -1.12703695
 C           -2.49544442       -1.15193952       -2.10829439
 C           -2.45561119        1.19299929       -1.48162535
 C           -2.60001495       -0.81514162       -3.45161071
 C           -0.51727353       -2.03571455       -3.82847266
 C            0.83539576       -1.48490374       -3.80438602
 C           -1.55987071       -1.28215988       -4.35814263
 C            1.63939551        0.80774222       -3.55346936
 C            1.08747601       -0.25010648       -4.38206736
 C            0.59455631        2.91163768       -2.89288404
 C           -0.82150842        3.14563379       -2.60977807
 C            0.96026046        2.04503405       -3.91032899
 C           -2.66953255        1.57732531       -2.80881787
 C           -2.91757742        0.55014129       -3.80026726
 C           -1.78426452        2.55977044       -3.41309819
 C           -1.24990602       -0.20269513       -5.27384798
 C            0.09592488        0.33949061       -5.27014024
 C            0.00180396        1.75523681       -4.96043952
 C           -2.17743824        0.88429500       -5.00610058
 C           -1.39555724        2.07269877       -4.72552912
