   70
C70 / DATE: 7/ 1/2024 / Origin: Program Fullerene / C70 from database
 C            1.08578760       -0.19460294        4.88203735
 C            2.33474318       -0.40935578        4.17313561
 C            2.23525069       -1.68160839        3.47850483
 C            0.23446901       -1.34838287        4.63604384
 C            0.87014190       -2.15037761        3.61020249
 C           -1.10781805       -0.86790974        4.40328691
 C            0.30428554        0.99768740        4.59961342
 C           -1.07673379        0.58677025        4.43843080
 C            0.81575805        1.97512493        3.75434736
 C            2.78162478        0.58150061        3.21148143
 C            2.11736545        1.79597208        3.11974826
 C            2.76877972       -1.50485851        2.13855847
 C            3.15309708       -0.11310678        1.98826138
 C            2.11967565       -2.11938037        1.07564270
 C            0.18089610       -2.47439368        2.44409515
 C            0.93172400       -2.81037211        1.31981303
 C           -1.78293516       -1.25715377        3.18083411
 C           -1.16129366       -2.10117893        2.26893180
 C           -1.83115445        1.06905213        3.29252313
 C           -2.45227430       -0.08480301        2.66656373
 C           -0.06160505        2.62453636        2.78850351
 C           -1.29830192        2.06528555        2.47307097
 C            2.07141697        2.47026763        1.83743970
 C            0.77937103        3.12748219        1.72001427
 C            2.94935645        0.50391846        0.75366519
 C            2.61268608        1.86139991        0.70827211
 C            2.35749979       -1.63607423       -0.20807761
 C            2.73985180       -0.29833778       -0.37492640
 C            1.87571273       -2.36460186       -1.29278436
 C            0.26690981       -3.38250416        0.24632904
 C            0.85635264       -3.28788175       -1.07605922
 C           -1.71995900       -2.19919959        0.99264720
 C           -1.14926564       -3.10162598        0.10754318
 C           -2.71370921       -0.01639639        1.30769511
 C           -2.48281239       -1.13260108        0.49604164
 C           -1.78566167        2.18438036        1.16812212
 C           -2.71207362        1.23747334        0.71933610
 C            0.24089139        3.29319069        0.45113670
 C           -1.10436040        2.98686750        0.24172038
 C            2.32117419        2.44316960       -0.51926208
 C            1.12041220        3.25542982       -0.62835041
 C            2.68702758        0.29366915       -1.63964815
 C            2.42995488        1.65562239       -1.73123231
 C            2.10556743       -1.89417699       -2.57832391
 C            2.42706069       -0.49252689       -2.75763485
 C            1.20690348       -2.28475667       -3.65467740
 C           -0.23803411       -3.38826991       -2.02571431
 C           -1.44689812       -3.01058840       -1.30793356
 C           -0.04877299       -2.93490922       -3.32282301
 C           -2.75263675       -1.02753530       -0.87853207
 C           -2.22633883       -1.96073080       -1.77971543
 C           -3.26238725        1.35090820       -0.54466379
 C           -3.32660068        0.15285532       -1.36345939
 C           -1.64317286        3.16934832       -1.03017646
 C           -2.84912080        2.45123094       -1.38718844
 C            0.60700917        3.11993598       -1.98054829
 C            1.40976325        2.11924820       -2.66123624
 C           -0.75951145        3.14501252       -2.18582155
 C            1.53735679        0.03006864       -3.78332611
 C            0.90622465       -1.09701786       -4.43780095
 C            0.81421204        1.19229452       -3.51429248
 C           -1.11616627       -2.18702880       -3.96211128
 C           -2.20518915       -1.67403095       -3.14456267
 C           -0.51913142       -1.05611312       -4.65845245
 C           -3.11353448        0.55321906       -2.74519307
 C           -2.68863728        1.94183830       -2.73732811
 C           -1.33988299        2.25650999       -3.17620512
 C           -0.57123888        1.24343749       -3.75083782
 C           -2.46129927       -0.32086684       -3.59632869
 C           -1.24780189        0.13055120       -4.25836504
