   70
C70 / DATE: 7/ 1/2024 / Origin: Program Fullerene / C70 from database
 C            0.95217886        0.10810503        4.81678617
 C            2.20013940       -0.17965726        4.14975923
 C            2.18551188       -1.58769482        3.79363239
 C            0.13621087       -1.09952407        4.77580204
 C            0.81211382       -2.04120848        3.91034640
 C           -1.21549614       -0.70770181        4.44829897
 C            0.13485990        1.19172903        4.31659981
 C           -1.24207895        0.74233607        4.40103862
 C            0.52727820        1.91709478        3.18856489
 C            2.53325714        0.56047452        2.94996624
 C            1.66371198        1.53732410        2.45397413
 C            2.84448569       -1.72456956        2.50698436
 C            3.12213576       -0.38445863        2.01702988
 C            2.34290930       -2.65850929        1.61558542
 C            0.17952897       -2.53334669        2.76802031
 C            0.98671670       -3.14872436        1.81515832
 C           -1.79832572       -1.18620721        3.21053203
 C           -1.07911045       -2.04268688        2.37847567
 C           -2.14870935        1.13127638        3.33939912
 C           -2.51210430       -0.07394894        2.60841013
 C           -0.44241102        2.70443606        2.57690727
 C           -1.83285153        2.26299796        2.60941596
 C           -0.19620735        3.25956392        1.26049066
 C            1.79461101        1.91236698        1.10737372
 C            0.90832283        2.83318577        0.53400077
 C            3.00293317       -0.11025701        0.66112191
 C            2.66865266        1.18583154        0.29194948
 C            2.50345661       -2.42098236        0.19290672
 C            2.79705902       -1.14558522       -0.25895275
 C            0.44251590       -3.46086714        0.51111247
 C            1.46511561       -3.16444803       -0.48154887
 C           -1.48592062       -2.16116588        1.04553306
 C           -0.86736751       -3.10758019        0.22487776
 C           -2.61229320       -0.02522262        1.21927485
 C           -2.29058009       -1.15947567        0.47983995
 C           -2.33016643        2.36679733        1.25506669
 C           -1.48360892        3.33869494        0.59536183
 C           -2.68704993        1.20742469        0.56677255
 C           -1.50757829        3.38433432       -0.78448295
 C            0.92885011        3.05534194       -0.84656485
 C           -0.24573418        3.43650986       -1.49977782
 C            2.82454397        1.53310668       -1.03973800
 C            2.00455151        2.58896777       -1.59179826
 C            2.50354053       -0.81919994       -1.58328635
 C            2.86074385        0.45566078       -2.01008908
 C            1.03912065       -2.76077805       -1.74205124
 C            1.53021127       -1.55867035       -2.28725741
 C           -1.26498188       -3.21579015       -1.10136316
 C           -0.22291128       -3.20575383       -2.11442875
 C           -2.56783677       -1.17420326       -0.88406063
 C           -2.30932767       -2.34401987       -1.58996613
 C           -2.70162569        1.23865221       -0.83020299
 C           -2.33198112        2.41734546       -1.48383171
 C           -2.76022560        0.04315286       -1.55274217
 C           -0.51442659        2.96815502       -2.85334522
 C           -1.84024340        2.36266527       -2.84983505
 C            1.83458951        2.30674972       -3.00807399
 C            2.34870599        0.96796955       -3.25714675
 C            0.50934707        2.39085288       -3.59288579
 C            0.97765246       -1.05469662       -3.48459574
 C            1.32235548        0.21695980       -3.93786245
 C            0.26800446        1.14958415       -4.31047327
 C           -0.81226055       -2.72841460       -3.34032869
 C           -2.17400595       -2.31537120       -3.03251061
 C           -0.16982365       -1.63318517       -4.02647901
 C           -2.74196446        0.10256043       -2.94905894
 C           -2.08282568        1.22089054       -3.59780156
 C           -1.03046613        0.67355149       -4.44320459
 C           -2.42178363       -1.07486194       -3.72734332
 C           -1.23163807       -0.76388272       -4.50328169
