   70
C70 / DATE: 7/ 1/2024 / Origin: Program Fullerene / C70 from database
 C            1.57809683       -0.31193262        4.95415930
 C            0.74289483       -1.49722179        4.99910839
 C            1.23568954       -2.42066330        3.99448825
 C            2.55020823       -0.48960502        3.88810673
 C            2.32226071       -1.77994032        3.27691137
 C            2.48982336        0.67938872        3.03952933
 C            0.73364483        0.80783470        4.58192211
 C            1.40171390        1.52021340        3.51012407
 C           -0.60193035       -1.11213627        4.60471437
 C           -0.60249227        0.30726689        4.32198357
 C            0.09512068       -2.87276081        3.21992915
 C           -1.02746155       -2.01321355        3.55458694
 C            0.29285849       -3.16265007        1.87562618
 C            2.31291394       -1.87158665        1.88934395
 C            1.54138343       -2.87624262        1.31552758
 C            2.62938576        0.52302820        1.66531393
 C            2.65700407       -0.75956544        1.10539400
 C            2.22433824        1.57792029        0.86226924
 C            0.61575230        2.13905123        2.54534487
 C            1.20785386        2.42226652        1.31888799
 C           -1.24252317        0.75777187        3.17290372
 C           -0.76116990        1.91643427        2.56805979
 C           -1.78504996       -1.51048523        2.50282270
 C           -2.01222594       -0.12924423        2.40870976
 C           -0.82393591       -3.15360468        1.04120962
 C           -1.87620057       -2.28488584        1.34960922
 C           -0.67546491       -3.64448648       -0.25232179
 C            1.75276226       -3.16599115       -0.02256353
 C            0.66976566       -3.77053121       -0.77624355
 C            2.63377228       -0.88790748       -0.29375397
 C            2.35679019       -2.13857921       -0.85323809
 C            2.49106813        1.51545976       -0.49473114
 C            2.54491066        0.25694273       -1.10316488
 C            2.20015293        2.64227627       -1.25023967
 C            0.49752176        3.19446228        0.40075474
 C            1.07368816        3.45738253       -0.83719219
 C           -1.53935401        2.50673759        1.58370189
 C           -0.88667307        3.26112198        0.52510466
 C           -2.71810704        0.37205399        1.30661224
 C           -2.59945596        1.72068323        0.97741490
 C           -2.77387278       -1.89161596        0.36673014
 C           -3.22345703       -0.51162632        0.35641073
 C           -1.52110117       -3.14489785       -1.32246847
 C           -2.58553237       -2.31835094       -1.00900503
 C            0.68556955       -3.20845935       -2.11312874
 C            1.73651250       -2.21055963       -2.16514264
 C           -0.66660147       -2.79971553       -2.44726565
 C            2.17049857        0.11485022       -2.44727035
 C            1.48496224       -1.02853180       -2.83944990
 C            2.17605721        2.54432641       -2.69277163
 C            2.12561318        1.22638371       -3.28306400
 C            0.21610132        3.62271520       -1.99963629
 C            1.01911227        3.28837189       -3.16481251
 C           -1.71752356        3.16063061       -0.66379858
 C           -2.73153026        2.14652728       -0.40974252
 C           -1.12342040        3.23534320       -1.91869674
 C           -3.34663894       -0.09272541       -1.03289039
 C           -2.88283705       -1.18774435       -1.86973067
 C           -3.03634197        1.21531228       -1.39921481
 C           -0.84651361       -1.58074552       -3.09563960
 C            0.28627154       -0.89194036       -3.54072539
 C           -2.06081182       -0.89837342       -2.95354955
 C            1.12349903        1.26165617       -4.33587044
 C            0.42231476        2.53407575       -4.24551282
 C            0.12709104        0.20472805       -4.37861276
 C           -1.74147792        2.58108297       -2.98471970
 C           -2.63480234        1.46615121       -2.71106358
 C           -2.20856188        0.35088125       -3.54504658
 C           -0.99658205        2.25367178       -4.18994774
 C           -1.17532701        0.83351595       -4.44108956
