   70
C70 / DATE: 7/ 1/2024 / Origin: Program Fullerene / C70 from database
 C            1.26544202       -0.00644899        4.41465706
 C            2.56232375       -0.32384289        3.86778146
 C            2.53065119       -1.71448703        3.44372121
 C            0.42165400       -1.18475946        4.26777490
 C            1.13933651       -2.13190788        3.44520224
 C           -0.87716242       -0.72700166        3.82381912
 C            0.52895289        1.10873854        3.85633566
 C           -0.86579615        0.72130689        3.90301727
 C            1.00134448        1.76982474        2.72026360
 C            3.05002691        0.45012375        2.74644542
 C            2.24503994        1.42889716        2.15845016
 C            3.28596502       -1.81170709        2.20631416
 C            3.76775715       -0.47435609        1.88958483
 C            2.78655391       -2.61408133        1.18767235
 C            0.56832954       -2.57273199        2.25429346
 C            1.40655475       -3.07137452        1.25994377
 C           -1.47504225       -1.32010609        2.71765276
 C           -0.74975789       -2.22750513        1.92835063
 C           -2.59941903       -0.69391499        2.17816521
 C           -1.76587940        1.42211594        3.11928982
 C           -2.76017247        0.67792094        2.36251810
 C            0.10685992        2.56960076        2.00139065
 C           -1.26182322        2.46696273        2.24378593
 C            0.53061680        3.21576418        0.84845827
 C            2.58943280        1.89534144        0.88618502
 C            1.81300604        2.86772004        0.27268317
 C            3.97369956       -0.11705407        0.56560362
 C            3.49153003        1.17565152        0.10758092
 C            3.06529419       -2.27185437       -0.19748329
 C            3.70856895       -1.07995911       -0.49323913
 C            0.91020076       -3.20002694       -0.09757776
 C            1.92227286       -2.67770088       -0.99855905
 C           -1.28160264       -2.64494739        0.70548175
 C           -0.42134349       -2.91864385       -0.36108788
 C           -3.27353113       -1.30589846        1.13043637
 C           -2.62813413       -2.41066704        0.45065036
 C           -3.90172196       -0.47519726        0.11365621
 C           -3.15260287        1.50341650        1.23237952
 C           -2.19506239        2.59608252        1.13481508
 C           -3.61172103        0.88778981        0.07307183
 C           -0.41148804        3.42877784       -0.24140456
 C           -1.72610614        2.98660765       -0.11533405
 C            1.67402056        2.86690232       -1.17796544
 C            0.30082572        3.23206791       -1.49441165
 C            3.27368850        1.07729270       -1.32552318
 C            3.30520277       -0.33494660       -1.67124750
 C            2.32726343        1.89714106       -1.93859327
 C            1.51600921       -1.90050256       -2.08132325
 C            2.31606130       -0.83115906       -2.51213786
 C           -0.77835152       -2.54068117       -1.65589365
 C            0.18793948       -2.00195963       -2.51120833
 C           -3.10338353       -2.42207156       -0.92102892
 C           -3.93975997       -1.24732299       -1.11473467
 C           -2.12576744       -2.44577249       -1.98902005
 C           -3.54041579       -0.61734582       -2.35840034
 C           -2.54817470       -1.47743677       -2.98518786
 C           -3.41239385        1.52589161       -1.15147632
 C           -2.42621670        2.59233618       -1.25138563
 C           -3.37319820        0.76095981       -2.39107992
 C           -0.34215612        2.62347684       -2.56596190
 C           -1.72367899        2.43834903       -2.51631391
 C           -2.34885343        1.34163728       -3.24458442
 C            1.74748030        1.46177253       -3.13015348
 C            1.82130822        0.04789997       -3.46804529
 C            0.42106952        1.92981959       -3.50010821
 C           -0.21034510       -1.35742508       -3.67895069
 C           -1.58927389       -0.92427990       -3.82115035
 C           -1.56980092        0.51447436       -4.04273223
 C            0.62410516       -0.30069196       -4.20254751
 C           -0.19625135        0.89510597       -4.31158038
