   70
C70 / DATE: 7/ 1/2024 / Origin: Program Fullerene / C70 from database
 C            1.40583097        0.00380625        4.25169521
 C            2.42748679       -0.14549972        3.23537396
 C            2.20802898       -1.41986246        2.56317135
 C            0.56328875       -1.17826107        4.21172054
 C            1.01710967       -2.02382271        3.11765158
 C           -0.82075259       -0.73986880        4.21667544
 C            0.54615058        1.16790699        4.20533452
 C           -0.81562189        0.69686673        3.98742206
 C            0.98711570        2.28830148        3.51817305
 C            2.80838573        0.95771244        2.47372337
 C            2.15689614        2.18497785        2.65062699
 C            3.47690341        0.71680666        1.27667041
 C            2.45188507       -1.50169780        1.20055075
 C            3.36719507       -0.60211117        0.67241489
 C            1.49593073       -2.07752837        0.35555065
 C            0.06547473       -2.57289271        2.26776989
 C            0.31975402       -2.64132983        0.88828461
 C           -1.74320137       -1.51441433        3.53582377
 C           -1.24822795       -2.61725419        2.73017354
 C           -2.73040653       -0.84585681        2.71325371
 C           -1.58148952        1.24138924        2.95062661
 C           -2.43331664        0.41753198        2.20856529
 C            0.00340387        3.10635086        2.83548234
 C           -1.26926661        2.50792496        2.47335473
 C            1.93416797        3.05387733        1.50074798
 C            0.61217670        3.62915029        1.62481598
 C            3.37732532        1.68509573        0.20067161
 C            2.36702666        2.63663451        0.24878713
 C            3.46921884       -0.44196873       -0.76239290
 C            3.63494600        0.97892672       -1.03840106
 C            1.70493930       -2.05957818       -1.03073652
 C            2.65990165       -1.20621769       -1.59427657
 C            0.83652803       -2.75174158       -1.86424697
 C           -0.65101279       -3.18844248        0.03286677
 C           -0.42186590       -3.22688759       -1.33457875
 C           -2.31259762       -2.96339455        1.81842802
 C           -3.26432358       -1.86002843        1.83186966
 C           -1.97854321       -3.23026190        0.43921380
 C           -3.53736627       -1.50959012        0.45856086
 C           -2.97194440       -2.55626146       -0.37609629
 C           -2.71651342        0.72710572        0.86522483
 C           -3.40015922       -0.19090300        0.04591086
 C           -1.51462294        2.81131703        1.07926061
 C           -0.32174087        3.43673996        0.53566536
 C           -2.17861515        1.88564019        0.29104329
 C            1.53550288        2.80855120       -0.86572121
 C            0.15952426        2.98894351       -0.69111537
 C            3.11146899        1.49135953       -2.21365996
 C            2.00602539        2.43471465       -2.12160618
 C            2.54754643       -0.82485074       -2.93140025
 C            2.80717387        0.55904458       -3.28216467
 C            0.59103040       -2.26252332       -3.21090166
 C            1.41064389       -1.26556403       -3.72023475
 C           -1.48152426       -2.78557868       -2.23344246
 C           -2.65503130       -2.24841292       -1.69545247
 C           -0.84982974       -2.18414581       -3.40047490
 C           -3.46964431        0.03694996       -1.32729220
 C           -3.18436896       -1.07306505       -2.22632352
 C           -1.96964934        1.92938278       -1.08043853
 C           -0.73194872        2.36831428       -1.57030945
 C           -2.83508778        1.21266563       -1.88619055
 C            1.05103038        2.10231502       -3.16594166
 C            1.64060451        1.05646599       -3.98413648
 C            0.82004638       -0.08720692       -4.34387583
 C           -0.30388141        2.02285357       -2.85826486
 C           -1.40858049       -1.05684894       -3.98932611
 C           -2.64380206       -0.51937326       -3.45403472
 C           -2.45530283        0.90876046       -3.24742972
 C           -0.55882806        0.07141477       -4.33106195
 C           -1.11860035        1.24744650       -3.68162748
