   70
C70 / DATE: 7/ 1/2024 / Origin: Program Fullerene / C70 from database
 C            1.38867474       -0.26025932        5.38815597
 C            0.49993428       -1.40042605        5.29149906
 C            1.09581367       -2.35821046        4.37211077
 C            2.55074877       -0.53400335        4.55979568
 C            2.37870460       -1.83603142        3.94513449
 C            2.74781570        0.61469359        3.69847026
 C            0.70263643        0.88733220        4.81394473
 C            1.60096202        1.49839410        3.86898866
 C           -0.73748593       -0.93797318        4.69116799
 C           -0.58720037        0.45699964        4.32530020
 C            0.10114308       -2.67766192        3.36143604
 C           -1.07118669       -1.86562793        3.63755011
 C            0.49320707       -2.83349175        2.02594894
 C            2.74381810       -1.99060152        2.61568152
 C            1.83752133       -2.66643369        1.69455018
 C            3.24245964        0.42814711        2.40795834
 C            3.33587782       -0.86928292        1.89502221
 C            3.09386396        1.48911629        1.52055489
 C            1.07690450        2.09265475        2.73013775
 C            2.00517380        2.42122562        1.75945174
 C           -0.98495861        0.84166327        3.04290605
 C           -0.23577459        1.78363160        2.32516050
 C           -1.75260834       -1.38397965        2.54051742
 C           -1.84162074       -0.00203846        2.33935200
 C           -0.47971707       -2.67882584        1.02599151
 C           -1.72292882       -2.17783179        1.41389887
 C           -0.08969163       -2.56542665       -0.31980664
 C            2.19010619       -2.23119362        0.35694371
 C            3.10596395       -1.10960178        0.47543778
 C            1.21239203       -2.17835459       -0.62301837
 C            3.14245742        1.25199968        0.08815700
 C            2.96165542       -0.03547781       -0.39719793
 C            1.54319232        2.89919184        0.48430011
 C            2.41520943        2.34307789       -0.53571009
 C           -0.66176234        2.14490005        1.03290601
 C            0.18068650        2.93091746        0.23453803
 C           -2.38568485        0.43739911        1.13184157
 C           -1.77096482        1.49648869        0.45399772
 C           -2.65516846       -1.87792444        0.44810915
 C           -3.10397750       -0.50017633        0.39651597
 C           -1.07142827       -2.42824572       -1.31017245
 C           -2.39440695       -2.27740451       -0.91022798
 C           -0.71194642       -2.00197111       -2.59740082
 C            1.42042308       -1.34622155       -1.71346152
 C            2.21791153       -0.20544396       -1.56537015
 C            0.55703478       -1.43873993       -2.79822973
 C            1.87819688        2.16241212       -1.80222801
 C            1.98952256        0.90011918       -2.38911882
 C           -0.19075312        3.22756062       -1.06780596
 C            0.77354036        2.94717002       -2.12034683
 C           -2.16043031        1.80313556       -0.86338180
 C           -1.48142474        2.80054583       -1.55263248
 C           -3.45693047       -0.22405105       -0.97787533
 C           -3.28518653       -1.47016684       -1.71475101
 C           -3.04447442        0.96671533       -1.56237954
 C           -1.73100359       -1.80714167       -3.53902345
 C           -3.04442298       -1.39583880       -3.07178039
 C           -1.46838743       -1.07790014       -4.76681702
 C            0.80782058       -0.60896015       -3.88869398
 C            1.41325040        0.68316921       -3.63736340
 C           -0.18800432       -0.43027964       -4.92454383
 C            0.03752720        2.67924217       -3.33819099
 C           -1.38135124        2.73710732       -3.00094833
 C            0.50941169        1.68317800       -4.18277513
 C           -0.42144794        1.00070299       -5.06261534
 C           -3.17399342        1.08061551       -2.95059322
 C           -3.34084463       -0.13882868       -3.72523099
 C           -2.49728164       -0.05757939       -4.90183895
 C           -2.28675723        1.95415929       -3.69865291
 C           -1.84035539        1.23594154       -4.88324952
