   70
C70 / DATE: 7/ 1/2024 / Origin: Program Fullerene / C70 from database
 C            1.33423840       -0.20297439        4.14105922
 C            2.44909749       -0.46138737        3.24734342
 C            2.36463686       -1.85320249        2.82845728
 C            0.46117352       -1.36162311        4.11223631
 C            1.15279024       -2.42220342        3.40988531
 C           -0.83267208       -0.93097095        3.61465534
 C            0.51793480        0.97153785        3.91115406
 C           -0.82257856        0.52182223        3.57147228
 C            1.06520839        2.02051993        3.19488675
 C            2.82232621        0.51299227        2.32414320
 C            2.27741633        1.79504442        2.41547988
 C            3.44199720        0.12153078        1.14026388
 C            2.75334365       -2.20828665        1.53516717
 C            3.42375012       -1.27894685        0.74677623
 C            2.19822642       -3.33344358        0.93153481
 C            0.39771533       -3.30417675        2.65494612
 C            1.03435086       -3.96011823        1.53213164
 C           -1.43129263       -1.63871794        2.57178552
 C           -0.94080725       -2.90442441        2.23314784
 C           -2.24945796       -0.95456865        1.66514797
 C           -1.52818661        1.16024016        2.55756877
 C           -2.45360232        0.41975362        1.83271599
 C            0.18692307        2.85141731        2.39357524
 C           -1.08269791        2.38741894        2.05198666
 C            2.18044765        2.61711909        1.21864984
 C            1.01053652        3.46465582        1.37093109
 C            3.27626689        0.92704782       -0.06114816
 C            2.46539102        2.04920541       -0.02052665
 C            3.30174346       -1.33470311       -0.70308925
 C            3.19460554        0.03292735       -1.19565120
 C            2.00982236       -3.35779290       -0.51095090
 C            2.54687921       -2.34233900       -1.30302223
 C            0.03511845       -4.13488666        0.49330301
 C           -1.14641734       -3.40498920        0.88406140
 C            0.64763717       -3.80389864       -0.77069479
 C           -2.57228090       -1.56157884        0.44699673
 C           -1.75990283       -2.57285253       -0.03911748
 C           -3.42662539       -0.92979554       -0.43872647
 C           -3.32748319        1.09645271        0.99473522
 C           -3.94589192        0.37768682       -0.09925149
 C           -1.74325819        2.96758873        0.96250309
 C           -2.93885294        2.40743614        0.50850301
 C            0.39081931        3.94961647        0.23472708
 C           -1.05700614        3.87390821        0.15141089
 C            1.69013437        2.38717327       -1.13243468
 C            0.90081468        3.53325900       -1.05853812
 C            2.31555036        0.31161767       -2.23430827
 C            1.50055112        1.45609466       -2.17176815
 C            1.95880180       -2.09137676       -2.54230410
 C            1.98325019       -0.74091434       -3.07941950
 C           -0.09196403       -3.12556342       -1.72995108
 C           -1.30562880       -2.51065103       -1.36652944
 C            0.63084414       -2.62305035       -2.80075938
 C           -3.07229820       -0.92542667       -1.84523633
 C           -1.97456412       -1.66970074       -2.27604156
 C           -3.87412893        1.21122324       -1.28608238
 C           -3.29209033        2.48109537       -0.90507104
 C           -3.24114257        0.43613039       -2.33841436
 C           -1.39144266        3.96746683       -1.25776767
 C           -0.16881029        3.72648655       -2.01004595
 C           -2.42714360        3.10385339       -1.79016658
 C            0.48307560        1.65041277       -3.12754673
 C           -2.23473630        1.01152769       -3.11508631
 C           -0.43410387        2.67775903       -2.96221709
 C           -1.84727650        2.33688292       -2.88612786
 C            0.85642084       -0.61323864       -3.97368001
 C           -0.01774410       -1.75484718       -3.75299517
 C           -1.33418824       -1.24833147       -3.43732523
 C            0.04790649        0.57758668       -3.89058505
 C           -1.34146934        0.16649028       -3.77076158
