   70
C70 / DATE: 7/ 1/2024 / Origin: Program Fullerene / C70 from database
 C            1.39009192       -0.28881180        4.69265380
 C            2.63291207       -0.49252820        3.97387925
 C            2.57800465       -1.80212786        3.34254234
 C            0.54601780       -1.45099377        4.46307312
 C            1.28780935       -2.39419864        3.64352520
 C           -0.74575489       -0.97582796        3.99238262
 C            0.59769752        0.89570655        4.40950202
 C           -0.77288613        0.46164637        4.18646161
 C            1.13366456        1.91084086        3.62136278
 C            3.02912901        0.47211652        2.96375966
 C            2.36014103        1.68522320        2.86725782
 C            2.97415030       -1.64969855        1.95038038
 C            3.33925840       -0.25989172        1.74927922
 C            2.25133683       -2.30751179        0.95166541
 C            0.61659555       -3.05913360        2.62903966
 C            1.25481412       -3.19873247        1.32923765
 C           -1.29194484       -1.52855531        2.83340099
 C           -0.77722154       -2.73111708        2.37163687
 C           -2.07694909       -0.73792401        1.98374333
 C           -1.60973844        1.22140268        3.38610042
 C           -2.42064943        0.54476783        2.38793763
 C            0.25017237        2.72021159        2.79730024
 C           -1.10948742        2.44692341        2.78073909
 C            2.19610480        2.29797862        1.56060387
 C            0.93028147        3.00321012        1.54124149
 C            3.07162685        0.30538043        0.51281557
 C            2.58241334        1.61281206        0.41844507
 C            2.23633455       -1.77116771       -0.34358814
 C            2.88621359       -0.55393535       -0.56322094
 C            1.35782401       -2.28297027       -1.31824292
 C            0.20018821       -3.50718144        0.39279022
 C           -1.06268626       -3.14570242        1.01899308
 C            0.35635429       -3.19589570       -0.94755954
 C           -2.32981445       -1.13790403        0.66050980
 C           -1.98364911       -2.43601397        0.25916287
 C           -2.81850771       -0.20624840       -0.28258186
 C           -2.76253685        1.52836786        1.38987333
 C           -1.84640845        2.64648771        1.54991215
 C           -3.06054991        1.12543931        0.09778989
 C            0.19997205        3.04258449        0.35212445
 C           -1.19526222        3.12560079        0.41663932
 C            2.08482123        2.04346608       -0.80791766
 C            0.82423117        2.66384485       -0.84868597
 C            2.90179176       -0.00020916       -1.83053685
 C            2.58229569        1.40913932       -1.93912096
 C            1.36597152       -1.73662482       -2.61501294
 C            2.22798252       -0.68593011       -2.91018349
 C            0.32512496       -2.00836284       -3.50554952
 C           -0.80722606       -3.25852275       -1.70062833
 C           -2.03139929       -2.76824223       -1.08710141
 C           -0.78513510       -2.82175086       -3.07240077
 C           -2.97881978       -0.58153357       -1.62886116
 C           -2.66031823       -1.87192485       -2.02673522
 C           -2.00738303       -2.07275352       -3.31199328
 C           -3.10601642        0.39031008       -2.62238846
 C           -2.99807801        2.12534699       -0.86513257
 C           -1.92435795        3.09982416       -0.76333875
 C           -3.15720969        1.78402546       -2.25569829
 C            0.12595507        2.78574404       -2.06009268
 C           -1.22748688        3.09787763       -2.03156179
 C           -2.11754274        2.47785129       -3.00013339
 C            1.95070454        1.62570294       -3.21764147
 C            1.81261701        0.33008581       -3.86482722
 C            0.66194139        2.27535840       -3.24245922
 C           -0.22367542       -0.93597078       -4.32427935
 C           -1.66455912       -0.91074906       -4.11227373
 C           -2.29584747        0.29265761       -3.82741154
 C           -1.56482930        1.54384954       -3.96509161
 C            0.47990135        0.25653019       -4.43479881
 C           -0.18851563        1.51833185       -4.15071240
