   70
C70 / DATE: 7/ 1/2024 / Origin: Program Fullerene / C70 from database
 C            1.53004974       -0.00329371        5.13690737
 C            0.65165758       -1.15190526        5.24567308
 C            1.20928412       -2.20317703        4.41964365
 C            2.56250179       -0.31694139        4.16067334
 C            2.31970098       -1.65005821        3.66006903
 C            2.60344922        0.76776210        3.20889535
 C            0.75047247        1.09146782        4.59315644
 C            1.54206337        1.69814222        3.54340851
 C           -0.63300751       -0.79313886        4.66467234
 C           -0.55781283        0.58474339        4.22906999
 C            0.11182470       -2.78200955        3.67535682
 C           -0.96830974       -1.80369034        3.68085581
 C            0.41975704       -3.37903531        2.46889502
 C            2.35378489       -1.88207933        2.28400800
 C            1.66269574       -2.99308229        1.80979424
 C            2.79040596        0.48529826        1.86082131
 C            2.64450516       -0.83387364        1.39458811
 C            2.56735575        1.53253196        0.96830816
 C            0.87555192        2.27668720        2.47394061
 C            1.61491841        2.49651610        1.31785552
 C           -1.04130510        0.91686996        2.96922065
 C           -0.49240904        2.02404461        2.32551202
 C           -1.51894952       -1.40542324        2.45989040
 C           -1.69743844       -0.04356200        2.19270870
 C           -0.58634447       -3.36322178        1.43399455
 C           -1.49645693       -2.30692468        1.39549072
 C            1.45359544       -3.15601589        0.38151073
 C            0.11970682       -3.71111818        0.22339608
 C            2.58123165       -1.06089158        0.00939513
 C            1.87547848       -2.15860551       -0.49445032
 C            2.90293301        1.33109665       -0.36298477
 C            2.93902812       -0.03173101       -0.85483252
 C            2.33181539        2.17461548       -1.39888686
 C            1.01951776        3.28020850        0.33978550
 C            1.42181557        3.15220169       -1.04879249
 C           -1.12747153        2.49603094        1.17971812
 C           -0.42470479        3.38556312        0.37107200
 C           -2.18481203        0.35037650        0.94596073
 C           -2.12184316        1.70258979        0.60520268
 C           -2.02802751       -1.93233854        0.15982599
 C           -2.39482701       -0.60273606       -0.05786923
 C           -0.53104094       -3.50117849       -0.97138307
 C           -1.77252279       -2.74888011       -0.93767884
 C            1.31103153       -2.11090354       -1.77857672
 C            0.22996199       -2.94391475       -2.06616748
 C            2.43375476       -0.02562780       -2.21506027
 C            2.06850659        1.34203865       -2.55630472
 C            1.62679202       -1.06693603       -2.65709734
 C            0.94113153        1.55906524       -3.34719458
 C            0.24172758        3.35416810       -1.87119469
 C           -0.87824429        3.63375549       -0.98130147
 C            0.02914415        2.57659154       -3.01062453
 C           -2.75374900        2.13363371       -0.55627398
 C           -2.14155329        3.19602110       -1.34246701
 C           -2.82595930       -0.18791763       -1.32679557
 C           -3.24650836        1.13320604       -1.48407822
 C           -1.97030812       -2.22829177       -2.27505267
 C           -0.75580372       -2.51496782       -3.03083246
 C           -2.59421951       -0.99910076       -2.45053309
 C            0.84563300       -0.84865928       -3.79692556
 C            0.56358464        0.52201728       -4.19854939
 C           -0.36574246       -1.62616245       -4.01376324
 C           -2.53321135       -0.43998082       -3.72849175
 C           -0.73034872        0.53552257       -4.84846689
 C           -1.37352292       -0.73098981       -4.55081346
 C           -1.24197662        2.61824386       -3.59084473
 C           -2.38431349        2.90237450       -2.74077180
 C           -3.25975661        1.74551756       -2.79851363
 C           -1.66486888        1.58360736       -4.50997005
 C           -2.84899895        0.95585519       -3.93573326
