   70
C70 / DATE: 7/ 1/2024 / Origin: Program Fullerene / C70 from database
 C            1.20554837       -0.02868899        4.38198475
 C            2.48647499       -0.31706645        3.78429803
 C            2.41000498       -1.64707525        3.19436022
 C            0.36101470       -1.19704330        4.18932810
 C            1.01951525       -2.05443295        3.23195599
 C           -0.96547959       -0.72159207        3.87319974
 C            0.45909211        1.11962016        3.90722348
 C           -0.93934337        0.73191138        3.91524238
 C            0.93897097        1.88344190        2.84461571
 C            2.98024182        0.56609693        2.75010455
 C            2.13935128        1.54019674        2.20382045
 C            3.07993281       -1.57994018        1.90629702
 C            3.73260841       -0.28429598        1.85053262
 C            2.41638930       -2.04317650        0.77046884
 C            0.37837630       -2.33797449        2.03127391
 C            1.15546539       -2.62734618        0.91040810
 C           -1.68083750       -1.32732151        2.84894595
 C           -0.99131289       -2.06915405        1.87700213
 C           -2.87389425       -0.71162084        2.50377868
 C           -1.84536163        1.42338184        3.11541408
 C           -2.97595682        0.72911346        2.68805433
 C            0.04351356        2.73445415        2.20779159
 C           -1.38923048        2.51888224        2.37449237
 C            0.28055285        3.12271138        0.82968230
 C            2.40077814        1.99571014        0.90492534
 C            1.39158064        2.62312748        0.16680367
 C            4.06063877        0.22142269        0.60881825
 C            3.54140119        1.52815319        0.25183211
 C            2.83288346       -1.58914608       -0.48660444
 C            3.82978694       -0.61769907       -0.55046366
 C            2.07501845       -1.89799668       -1.62484771
 C            0.54076749       -3.17313883       -0.20247270
 C            1.07411674       -2.86148014       -1.51540759
 C           -1.62160343       -2.40822297        0.67078875
 C           -0.90737788       -3.13058547       -0.28525304
 C           -3.52376382       -1.05042243        1.25717053
 C           -2.85519073       -1.84070804        0.33062889
 C           -3.78193945        1.25951151        1.60658372
 C           -4.21708007        0.13903376        0.79153073
 C           -2.03723687        2.89149882        1.12131244
 C           -0.99628755        3.13192728        0.13981498
 C           -3.20158693        2.25287219        0.72736164
 C           -1.07735085        2.55180698       -1.12189771
 C            1.33393722        2.46983661       -1.22257048
 C            0.09273142        2.41303311       -1.86643216
 C            3.62261985        1.61474684       -1.19348878
 C            3.87841266        0.26757052       -1.69007201
 C            2.48437865        2.12932271       -1.92478208
 C            2.16226448       -1.10650095       -2.78258869
 C            2.96612540        0.03173833       -2.78546047
 C            2.36393843        1.31303599       -3.11574536
 C            1.16362777       -1.18070102       -3.75359128
 C           -0.03346157       -2.87436357       -2.45348871
 C           -1.26308543       -3.02841530       -1.69010970
 C            0.00097197       -2.02727660       -3.55024274
 C           -3.23104463       -1.73992415       -1.00978776
 C           -2.39484198       -2.31368083       -2.05038515
 C           -4.07320991        0.51823824       -0.59979729
 C           -3.31552488        1.75975343       -0.63621652
 C           -2.23637403        1.86945755       -1.51447783
 C           -3.75056502       -0.47444359       -1.51084741
 C           -1.18331888       -1.26213075       -3.91779422
 C           -2.32859866       -1.35038070       -3.13910165
 C           -2.21095894        1.06074584       -2.65447345
 C           -2.94930962       -0.12284396       -2.66632688
 C            0.00702718        1.94805245       -3.17611114
 C            1.15935642        1.31211738       -3.79835072
 C            0.70517590        0.05537211       -4.36485916
 C           -1.17877263        1.21333813       -3.57429599
 C           -0.74469197        0.05555636       -4.33950189
