   70
C70 / DATE: 7/ 1/2024 / Origin: Program Fullerene / C70 from database
 C            1.33640465       -0.00901954        4.95177681
 C            0.57869802       -1.21496150        4.66515200
 C            1.48644345       -2.17256792        4.08249102
 C            2.61622601       -0.12632675        4.27438227
 C            2.74360107       -1.48589109        3.80675081
 C            2.69637561        0.94205721        3.30208164
 C            0.62457108        1.11278920        4.36073627
 C            1.52175932        1.78716188        3.45587796
 C           -0.59185350       -0.83011446        3.90514371
 C           -0.61356206        0.61915538        3.81579139
 C           -0.97002161       -1.55636968        2.77535242
 C            1.09255142       -2.84170985        2.85763572
 C           -0.14178005       -2.56447441        2.25995913
 C            3.05429172       -1.71320050        2.40646141
 C            2.27419923       -2.87095473        2.01933255
 C            3.14847018        0.68352794        2.00914242
 C            3.14287054       -0.63470040        1.51906514
 C            3.02283685        1.73344916        1.11020336
 C            1.00244861        2.37655990        2.30650555
 C            1.92318750        2.66567626        1.31149454
 C           -1.08915482        1.17384684        2.63658759
 C           -0.32846610        2.11801789        1.93376204
 C           -1.89410674       -0.96294732        1.92211229
 C           -2.01259459        0.42978284        1.92291389
 C           -2.35435482       -1.68049406        0.82457763
 C           -0.33808342       -2.99060098        0.93987381
 C           -1.50837050       -2.63550048        0.25785902
 C            2.09901552       -3.11914528        0.67369572
 C            0.76485875       -3.44096218        0.20952508
 C            2.96287540       -0.88091281        0.14692674
 C            2.63490939       -2.16517315       -0.28125679
 C            3.09600577        1.47094025       -0.30783106
 C            2.87448366        0.17715671       -0.75940840
 C            1.46028585        3.08472101        0.00826402
 C            2.41449177        2.57425716       -0.95802223
 C           -0.78943524        2.51490839        0.66623025
 C            0.10516890        3.01991520       -0.28977974
 C           -2.69292182        1.04877982        0.88771493
 C           -2.07791388        2.14093797        0.26445001
 C           -3.40050787       -1.13365705        0.08310565
 C           -3.64272320        0.28929821        0.21373732
 C           -3.55575003       -1.47251549       -1.32070065
 C           -1.61663615       -2.93967342       -1.10126297
 C           -2.57987576       -2.23810668       -1.93136793
 C            0.79190240       -3.25700958       -1.22714581
 C            1.87716030       -2.32976308       -1.51063669
 C           -0.40980318       -3.10090395       -1.89047653
 C            2.28385548       -0.01463731       -2.01541986
 C            1.63030160       -1.21770439       -2.30796930
 C            1.99180269        2.40542246       -2.26192381
 C            2.11369805        1.08542251       -2.85394953
 C           -0.27962789        3.10423661       -1.63230786
 C            0.67785117        2.90097420       -2.62880088
 C           -2.57481685        2.64145122       -0.93705325
 C           -1.63109482        3.03735305       -1.96268005
 C           -4.21121814        0.76481623       -1.02749569
 C           -4.05404162       -0.29577624       -2.01045951
 C           -3.68752694        1.98459801       -1.59867459
 C           -2.03962041        2.40006640       -3.21113966
 C           -3.29003441        0.24494566       -3.12062406
 C           -3.27548052        1.68849909       -2.95991096
 C           -1.86503539       -1.70259118       -3.08443666
 C           -0.48666620       -2.15603626       -2.98883412
 C            0.53963991       -1.23914178       -3.18802337
 C           -2.12891541       -0.40788620       -3.53763299
 C            1.14339061        1.01327166       -3.92785927
 C            0.30141770        2.19633231       -3.83885530
 C           -1.07774142        1.78298315       -3.99536710
 C            0.27692157       -0.14229489       -3.99822440
 C           -1.09523639        0.33041278       -4.12114109
