   70
C70 / DATE: 7/ 1/2024 / Origin: Program Fullerene / C70 from database
 C            1.32986700        0.17619376        4.77126833
 C            2.52282790        0.01974142        3.96585685
 C            2.51334022       -1.33282259        3.43602758
 C            0.49704649       -0.99866732        4.55570920
 C            1.18070125       -1.86151376        3.60612209
 C           -0.84481762       -0.54277547        4.23455967
 C            0.50584341        1.34640726        4.55655725
 C           -0.86794344        0.89947390        4.38762895
 C            0.80439218        2.22378026        3.43829638
 C            2.74607734        0.91922854        2.84306606
 C            1.79006272        1.86981751        2.51094765
 C            3.04595707       -1.27140955        2.09790231
 C            3.32393200        0.12303733        1.78605389
 C            2.46974604       -2.04786207        1.10133456
 C            0.48065501       -2.30040717        2.48483407
 C            1.13936605       -2.47427899        1.25539485
 C           -1.49069317       -1.09873017        3.13753936
 C           -0.90635270       -2.19379355        2.49960610
 C           -2.40581472       -0.31684882        2.43118610
 C           -1.45824228        1.69878181        3.32477589
 C           -0.47587716        2.70454988        2.95743429
 C           -2.17808108        1.05491211        2.31804706
 C           -0.53242930        3.24299256        1.68773480
 C            1.65968368        2.27789964        1.17957476
 C            0.66633181        3.19775077        0.87063637
 C            3.18018478        0.52196682        0.46166736
 C            2.29815147        1.56823181        0.14578351
 C            2.95408458       -1.81626178       -0.17674020
 C            3.40265923       -0.46690385       -0.48427317
 C            2.21047124       -2.28986485       -1.32108527
 C            0.38816481       -2.85592694        0.12976829
 C            0.87091896       -2.61026911       -1.15832724
 C           -1.62958279       -2.85291808        1.51956539
 C           -0.94563447       -3.21731032        0.29169226
 C           -3.21752236       -0.94017488        1.49431906
 C           -2.93201562       -2.32401863        1.16425109
 C           -3.50705213       -0.24346050        0.25385055
 C           -2.31135247        1.67360544        1.06914003
 C           -1.63180438        2.85933148        0.82209175
 C           -2.86466804        0.96774141       -0.00232725
 C            0.23513998        3.34179115       -0.49712536
 C           -1.20902423        3.15523651       -0.52781029
 C            1.94629475        1.80526263       -1.20303449
 C            0.98366994        2.78183034       -1.51794808
 C            3.09558426       -0.20984663       -1.86766172
 C            2.61400827       -1.45914795       -2.43735521
 C            2.46846143        0.97785155       -2.21727329
 C            1.79663460       -1.40113436       -3.55098179
 C           -0.01949163       -2.42510356       -2.22571897
 C            0.45021022       -1.94289454       -3.45106675
 C           -1.87058997       -3.02163057       -0.81084876
 C           -3.10833948       -2.49142987       -0.26397419
 C           -3.62086651       -1.24285073       -0.79646662
 C           -1.39730667       -2.49636735       -2.00729853
 C           -3.26046799       -0.89407310       -2.08513003
 C           -2.25404938       -1.69450595       -2.76320081
 C           -2.57547270        1.34052417       -1.32539540
 C           -1.75452928        2.44621322       -1.59067021
 C           -2.94191008        0.49091568       -2.37019269
 C            0.36543410        2.76071490       -2.76122247
 C           -1.06858105        2.52267081       -2.80325009
 C            2.00885140        1.08458690       -3.52933509
 C            1.70995406       -0.13732706       -4.25976286
 C            0.97507563        2.03850770       -3.84748204
 C           -0.42131437       -1.11693968       -4.27154763
 C           -1.71699484       -0.87691237       -3.83512291
 C           -2.17193472        0.49191858       -3.60167104
 C           -1.32760490        1.56142518       -3.85918002
 C            0.36769565       -0.01910660       -4.80033834
 C           -0.07911797        1.34059567       -4.56940490
