   70
C70 / DATE: 7/ 1/2024 / Origin: Program Fullerene / C70 from database
 C            1.21928735       -0.25751647        4.31513409
 C            2.45418311       -0.61528268        3.65772225
 C            2.31974335       -1.97490688        3.15851923
 C            0.36763074       -1.43494026        4.33707065
 C            1.02225611       -2.47866084        3.57215743
 C           -0.97094233       -1.02152814        3.95522908
 C            0.44329967        0.84242434        3.77455145
 C           -0.93503977        0.40243950        3.65523361
 C            0.96920832        1.63940454        2.76542195
 C            2.90841276        0.20945919        2.55725712
 C            2.25923453        1.40424743        2.26330379
 C            2.65249490       -1.95989730        1.74259262
 C            3.22878190       -0.66303424        1.44868961
 C            1.77260567       -2.52827182        0.82882097
 C            0.26873762       -3.20587523        2.66269664
 C            0.74604900       -3.34888806        1.29421766
 C           -1.74472304       -1.84843891        3.14812532
 C           -1.17121639       -2.99997185        2.59549249
 C           -2.86062717       -1.28091847        2.54138029
 C           -1.72351824        0.88930851        2.61055048
 C           -2.83575210        0.14173584        2.23234032
 C            0.07279597        2.37417195        1.99476966
 C           -1.18041538        1.82374915        1.71734435
 C            0.58564355        3.35700653        1.16246439
 C            2.62064206        2.04216675        1.07718526
 C            1.97818528        3.24170092        0.78782184
 C            3.09379971       -0.13770637        0.17295831
 C            3.11743859        1.24682371        0.03210576
 C            1.70103778       -2.00898558       -0.46506110
 C            2.48482762       -0.90247904       -0.82439938
 C            0.73403909       -2.49532037       -1.34364281
 C           -0.41310818       -3.59350809        0.45173199
 C           -1.59838892       -3.47959047        1.28733798
 C           -0.43199134       -3.07847143       -0.83941595
 C           -3.50547488       -1.96593035        1.43793996
 C           -2.77106428       -2.99549894        0.73018958
 C           -3.39812469        0.31776841        0.90737034
 C           -3.91767459       -0.96058090        0.47289148
 C           -1.73767299        1.98296430        0.43988328
 C           -2.71428461        1.09664453       -0.01199631
 C           -0.15047912        3.72695845       -0.02985415
 C           -1.20899485        2.92628781       -0.44302485
 C            2.14432486        3.86297173       -0.50986099
 C            0.81855059        4.19133340       -1.01022528
 C            3.23882283        1.75806622       -1.25396399
 C            2.83818407        3.12309710       -1.53762232
 C            2.42656767       -0.39280847       -2.12930765
 C            2.81706194        0.92672866       -2.36691073
 C            0.80323770       -2.15043416       -2.68372185
 C            1.60820714       -1.00869268       -3.07267026
 C           -0.42553986       -2.10679396       -3.44601734
 C           -1.66208148       -2.84668892       -1.46853300
 C           -2.79860752       -2.66424381       -0.68416214
 C           -3.55007761       -1.42963916       -0.84617937
 C           -1.67412554       -2.25992171       -2.73000346
 C           -2.80148702        0.79480830       -1.37405159
 C           -3.09331041       -0.51177550       -1.78673707
 C           -2.43534108       -1.03219776       -2.89869095
 C           -1.49133618        2.82252022       -1.80440261
 C           -2.27246384        1.69682113       -2.29011946
 C            0.72320816        3.71138907       -2.37730855
 C            1.99398673        3.10282552       -2.72043120
 C            2.00287201        1.75033133       -3.24879644
 C           -0.44427897        3.08190648       -2.78285605
 C            0.80143518       -0.17336472       -3.95096806
 C           -0.46893169       -0.84096795       -4.15858103
 C           -1.68845969       -0.15401220       -3.78290941
 C           -1.62886966        1.20037708       -3.49652480
 C            0.83470864        1.20575132       -3.77103631
 C           -0.36709881        1.91355429       -3.64851477
