   70
C70 / DATE: 7/ 1/2024 / Origin: Program Fullerene / C70 from database
 C            1.08824505       -0.05733392        4.64251096
 C            2.36227672       -0.37879655        4.05783878
 C            2.26116181       -1.72769717        3.51446958
 C            0.26173616       -1.24934321        4.53060494
 C            0.85404974       -2.05337840        3.48402944
 C           -1.09557452       -0.79527554        4.35624417
 C            0.32285823        1.02181878        4.05722875
 C           -1.04920967        0.65908692        4.31171466
 C            0.66795932        1.51217745        2.78920482
 C            2.84392625        0.44825097        2.97512009
 C            1.95856626        1.29020909        2.28859116
 C            2.99253852       -1.72077525        2.26512509
 C            3.67690125       -0.44390479        2.20217167
 C            2.37323323       -2.17824671        1.10633401
 C            0.21878411       -2.14483930        2.24490148
 C            0.98257041       -2.38539416        1.09728464
 C           -1.81860465       -1.21338414        3.17188657
 C           -1.13419239       -1.79685964        2.11139560
 C           -2.03221575        1.07357126        3.35011607
 C           -2.71162018       -0.12006031        2.87727544
 C           -0.33886296        2.00484930        1.93952820
 C           -1.67241235        2.00595300        2.38912291
 C           -0.05959490        2.19583961        0.57346985
 C            2.26121850        1.62067137        0.96418543
 C            1.22550370        1.95316145        0.07862226
 C            4.08774090       -0.00727906        0.96182452
 C            3.50517183        1.22444786        0.46644794
 C            3.03558285       -1.94557483       -0.10025544
 C            4.00235057       -0.93905374       -0.14643497
 C            2.46832756       -2.41208722       -1.28120394
 C            0.32990638       -2.61855223       -0.11277060
 C            1.09124206       -2.86315601       -1.25261858
 C           -1.68916890       -1.69994719        0.83482038
 C           -1.02255727       -2.29297444       -0.23513344
 C           -3.28059648       -0.03275913        1.61646707
 C           -2.82810306       -0.90108022        0.60926357
 C           -2.68246642        2.30750211        1.49075237
 C           -3.64929769        1.25102581        1.24290865
 C           -1.07536502        2.58661392       -0.30910449
 C           -2.34297490        2.84727112        0.19855119
 C           -0.88433753        2.46520800       -1.69200896
 C            1.45160601        2.01238362       -1.30596951
 C            0.36675210        2.09712141       -2.17625334
 C            3.74796918        1.23121459       -0.95839445
 C            4.12977569       -0.12478400       -1.33805057
 C            2.68190688        1.63590516       -1.83811040
 C            2.67192915       -1.68550008       -2.52900684
 C            3.36898625       -0.48328555       -2.51825379
 C            2.70560818        0.72714522       -2.96951126
 C            0.52221763       -2.63452628       -2.56896018
 C            1.45081663       -1.79509517       -3.31154757
 C           -1.64734246       -2.36638231       -1.47284078
 C           -0.84360280       -2.42096508       -2.68172759
 C           -3.31595256       -0.74012275       -0.70050512
 C           -2.78837129       -1.51224197       -1.73441950
 C           -4.19607121        1.46060041       -0.07073537
 C           -3.51276022        2.61630174       -0.62872261
 C           -4.07352683        0.38727368       -1.02997875
 C           -1.97877615        2.37098605       -2.55824845
 C           -3.32399484        2.35591544       -2.03419018
 C           -3.86280110        1.03107407       -2.31216737
 C           -1.34270575       -1.40119233       -3.58968380
 C           -2.60938138       -0.92523579       -3.05882695
 C           -1.95385372        1.37231712       -3.60865335
 C           -2.97931643        0.39635322       -3.27221443
 C            0.46185198        1.52119145       -3.44642142
 C            1.56189474        0.62659586       -3.74272065
 C            0.97741996       -0.68330905       -4.00069263
 C           -0.71748325        0.93418969       -4.04949492
 C           -0.45749115       -0.49383323       -4.16418006
