   70
C70 / DATE: 7/ 1/2024 / Origin: Program Fullerene / C70 from database
 C            1.33844869       -0.03881794        4.16735044
 C            2.49257340       -0.20892984        3.30222230
 C            2.44536038       -1.56500507        2.77758749
 C            0.47295539       -1.19455036        3.98075508
 C            1.10285998       -2.06770055        3.01764124
 C           -0.85827681       -0.70800160        3.70282358
 C            0.52068294        1.15079562        4.03438467
 C           -0.86593153        0.71768944        3.97156648
 C            0.95646059        2.18119494        3.21192733
 C            2.89969708        0.82746666        2.46456333
 C            2.16135779        2.01262886        2.40985083
 C            3.73287619        0.51613664        1.39386622
 C            3.05883202       -1.83904978        1.55853899
 C            3.91637177       -0.87909343        1.02499395
 C            2.48177365       -2.80090174        0.72510453
 C            0.36899413       -2.55056076        1.94138176
 C            1.08268022       -3.15867708        0.91412436
 C           -1.54780488       -1.18103227        2.59074501
 C           -0.91720279       -2.04937583        1.68385468
 C           -2.70194273       -0.50120253        2.20155004
 C           -1.80197133        1.50284912        3.31386376
 C           -2.84895447        0.84301298        2.55057702
 C           -0.00679669        2.92848026        2.41763465
 C           -1.36073096        2.64958918        2.53028168
 C            1.92953610        2.64731804        1.11964628
 C            0.56146298        3.12851398        1.09647784
 C            3.60025198        1.26927333        0.15780502
 C            2.47710552        2.06743934       -0.01980413
 C            4.26374024       -0.91224316       -0.38484389
 C            4.05792497        0.42535906       -0.92158730
 C            2.75449713       -2.81118066       -0.70634554
 C            3.58691612       -1.84811451       -1.26099007
 C            0.47672296       -3.30479462       -0.39553605
 C            1.52685329       -3.18654220       -1.39133517
 C           -1.53700174       -2.34156063        0.46334072
 C           -0.76480035       -2.72882604       -0.62804980
 C           -3.46618875       -1.01104428        1.16048773
 C           -2.85364669       -1.95894737        0.24974856
 C           -4.27662273       -0.09740892        0.37381741
 C           -3.29764794        1.79547108        1.54884533
 C           -2.19406935        2.71161853        1.33987151
 C           -3.98779364        1.32349395        0.44418018
 C           -0.21263717        2.89476027       -0.03192533
 C           -1.60307721        2.77923104        0.07968779
 C            1.68187587        1.91967098       -1.16768051
 C            0.42342787        2.53061839       -1.21524638
 C            3.23183402        0.30505544       -2.10026189
 C            3.14756387       -1.10502794       -2.43105605
 C            2.08922713        1.08913670       -2.22524387
 C            1.22314344       -2.62622074       -2.62317775
 C            2.04492025       -1.54408311       -3.14982755
 C           -1.11948844       -2.31704784       -1.91791277
 C           -0.16299558       -2.31148155       -2.93131962
 C           -3.27243719       -1.62573955       -1.10074603
 C           -4.19051548       -0.50453795       -1.01686987
 C           -2.32767626       -1.64624670       -2.12285468
 C           -3.56507363        1.74586808       -0.88271292
 C           -2.36225008        2.44244210       -1.04366094
 C           -3.91199710        0.67612026       -1.81026975
 C           -0.31534404        2.49692577       -2.38939960
 C           -1.76521512        2.48093162       -2.30054897
 C            1.17919071        0.75973990       -3.22976033
 C            1.13819347       -0.55258002       -3.70567551
 C           -0.14647170       -1.21077916       -3.87422594
 C            0.08361772        1.58529024       -3.44435368
 C           -2.43950061       -0.72650289       -3.17139353
 C           -3.15893260        0.52425289       -2.96380691
 C           -2.26399704        1.60026200       -3.34103031
 C           -1.28280960       -0.42873959       -4.00273693
 C           -1.12212763        1.01391152       -4.01890825
