   70
C70 / DATE: 7/ 1/2024 / Origin: Program Fullerene / C70 from database
 C            1.62772521        0.01396990        4.66106230
 C            0.78473740       -1.16344152        4.72552368
 C            1.39532890       -2.18356750        3.89338316
 C            2.59314831       -0.18987128        3.59138366
 C            2.41350739       -1.52901359        3.08214898
 C            2.47064815        0.91536367        2.66590662
 C            0.78709643        1.13153001        4.27945817
 C            1.43991137        1.79985822        3.17824169
 C           -0.58405158       -0.75824633        4.44231393
 C           -0.55934289        0.64374828        4.05843587
 C           -1.40280511       -1.63449997        3.74613727
 C            0.56716789       -3.12091142        3.29051849
 C           -0.87481656       -2.93645682        3.37037938
 C            0.87303616       -3.55897015        1.94035059
 C            2.40993208       -1.73622890        1.70703306
 C            1.91131449       -2.95036243        1.23690735
 C            2.49428629        0.66999322        1.28983940
 C            2.54633412       -0.64768687        0.82184886
 C            2.00657093        1.67155148        0.44272724
 C            0.65043915        2.42661870        2.23589345
 C            1.24994807        2.69505679        1.01998555
 C           -1.22190500        1.06641511        2.90583083
 C           -0.72823919        2.18464595        2.22601340
 C           -2.18040711       -1.13821850        2.62324424
 C           -2.05499080        0.18623280        2.21341481
 C           -1.44791665       -3.29613367        2.08374587
 C           -0.38357325       -3.78799084        1.24350358
 C           -2.21715054       -2.17423912        1.60436674
 C           -0.41142782       -3.51595296       -0.11820073
 C            1.99602045       -3.21949952       -0.11919812
 C            0.79501679       -3.70335644       -0.77504678
 C            2.53568763       -0.88207823       -0.55531976
 C            2.54834656       -2.20468358       -0.98940405
 C            1.90714803        1.43156577       -0.93405353
 C            2.15919066        0.14570625       -1.43813020
 C            1.41519803        2.44065969       -1.77303480
 C            0.59162404        3.59706513        0.21091497
 C            0.82857488        3.56880087       -1.21132539
 C           -1.45786148        2.69468852        1.14666653
 C           -0.83927120        3.70161013        0.40405012
 C           -2.41288013        0.50894986        0.90851642
 C           -2.37402580        1.84225365        0.51569236
 C           -2.08861414       -1.79315211        0.27404389
 C           -1.30575597       -2.54507133       -0.61296119
 C           -2.42919297       -0.49229770       -0.06863731
 C           -1.19875229       -2.11118717       -1.94746274
 C            0.89596284       -3.35990403       -2.16789091
 C            2.08207436       -2.52726762       -2.31834585
 C           -0.20127973       -2.63988990       -2.76933134
 C            1.95170892       -0.13418989       -2.80138208
 C            1.72117505       -1.44677905       -3.20019263
 C            0.41889230       -1.78129129       -3.75426995
 C            1.18466720        2.17709541       -3.11749030
 C            1.45273989        0.85557336       -3.64035207
 C           -0.03332464        2.67284255       -3.75409952
 C           -0.35020408        4.14339205       -1.83810669
 C           -1.41593205        4.14836369       -0.84613553
 C           -0.86430308        3.52842715       -3.04494218
 C           -2.90673249        2.16665526       -0.73135170
 C           -2.52914256        3.40517947       -1.38431603
 C           -2.23164263        3.10507135       -2.77416747
 C           -2.51100275       -0.14767762       -1.41193964
 C           -1.85080572       -0.93769338       -2.35760900
 C           -2.96562548        1.12662954       -1.74448924
 C           -2.60745152        1.72036901       -3.02137636
 C           -0.33163534       -0.75243703       -4.28663254
 C            0.35280997        0.50283697       -4.52527280
 C           -0.63784462        1.55616818       -4.45386712
 C           -1.58705786       -0.42147530       -3.63128431
 C           -1.86100490        0.97683506       -3.92186256
