   70
C70 / DATE: 7/ 1/2024 / Origin: Program Fullerene / C70 from database
 C            1.59380290       -0.09006788        5.14062242
 C            0.72286490       -1.24371557        5.26938926
 C            1.24582891       -2.28184494        4.40522329
 C            2.58368433       -0.38643020        4.11824892
 C            2.33823376       -1.72306951        3.62416862
 C            2.56890718        0.70167421        3.16819859
 C            0.79070983        1.01162946        4.64749002
 C            1.51559520        1.62584917        3.54669697
 C           -0.58732776       -0.88091320        4.75135664
 C           -0.54405524        0.51253563        4.37132537
 C            0.12158074       -2.83841074        3.68292626
 C           -0.95079528       -1.85356951        3.73971465
 C            0.38814149       -3.41660775        2.45849482
 C            2.34375370       -1.95351462        2.24777457
 C            1.62762385       -3.05150888        1.78215611
 C            2.70547391        0.42051044        1.81882260
 C            2.62190967       -0.90408871        1.35884683
 C            2.40687011        1.44647898        0.93253443
 C            0.76974399        2.19795982        2.51778261
 C            1.36643181        2.32260602        1.25698379
 C           -1.11829006        0.89820801        3.16973727
 C           -0.61454132        2.04431024        2.57181961
 C           -1.52708921       -1.40977580        2.54432425
 C           -1.75761007       -0.04479350        2.35127122
 C           -0.63640990       -3.34782314        1.44493422
 C           -1.50492579       -2.25581379        1.43614615
 C            1.39065655       -3.20273062        0.35663184
 C            0.03446468       -3.70778424        0.21892129
 C            2.55901274       -1.13114880       -0.02546994
 C            1.83514075       -2.21942951       -0.52573300
 C            2.77634835        1.27328373       -0.38718030
 C            2.88969270       -0.08526964       -0.88195298
 C            2.15534460        2.07992824       -1.41514161
 C            0.63968666        2.95507881        0.24002780
 C            1.08227373        2.89889379       -1.08832693
 C           -1.37251838        2.61259641        1.57111979
 C           -0.68175460        3.30329203        0.50629068
 C           -2.29541922        0.39824665        1.13600844
 C           -2.36912307        1.77176065        0.93558843
 C           -2.01185611       -1.81534652        0.20950478
 C           -2.31614497       -0.45963366        0.02637058
 C           -0.62876174       -3.46016160       -0.96019231
 C           -1.82028263       -2.63150140       -0.90079421
 C            1.25881090       -2.15983956       -1.80407590
 C            0.14132413       -2.95017609       -2.07006273
 C            2.41421554       -0.09572688       -2.25232129
 C            2.09651318        1.27565258       -2.62406598
 C            1.58972667       -1.12453927       -2.68683189
 C            1.08610006        1.51371057       -3.54946154
 C            0.25353500        3.34164381       -2.12171779
 C            0.32201914        2.67685328       -3.41715318
 C           -1.62866748        3.39248521       -0.58014222
 C           -2.57145918        2.29553904       -0.39558736
 C           -1.14679642        3.63631540       -1.85128894
 C           -2.56214009        0.05022093       -1.27069800
 C           -2.79998080        1.42538226       -1.45170837
 C           -2.00360726       -2.08961018       -2.22781119
 C           -0.84118477       -2.48202551       -3.01679445
 C           -2.51309095       -0.80867058       -2.38485674
 C            0.82892373       -0.91746280       -3.84145530
 C            0.62833077        0.44379385       -4.32221667
 C           -0.42278511       -1.63931871       -4.02704524
 C           -2.47414334       -0.28439639       -3.67572701
 C           -0.67920738        0.49280307       -4.95616753
 C           -1.39418528       -0.70132118       -4.55261529
 C           -0.99743316        2.77055853       -4.02043292
 C           -1.92383660        3.13151993       -2.96558149
 C           -2.77995864        1.98233598       -2.72950610
 C           -1.55154727        1.61575671       -4.69199482
 C           -2.66634703        1.12862743       -3.88534186
