   70
C70 / DATE: 7/ 1/2024 / Origin: Program Fullerene / C70 from database
 C            1.45862095        0.12202162        4.82111315
 C            0.69871258       -1.10307548        4.67779561
 C            1.58334855       -2.08243231        4.08851051
 C            2.65666800       -0.00806198        4.00350972
 C            2.74127244       -1.37791330        3.55676870
 C            2.61352141        1.03557744        3.00310803
 C            0.66276621        1.19894799        4.26195064
 C            1.49833418        1.90431699        3.32197688
 C           -0.54054239       -0.78997136        3.98114192
 C           -0.57580349        0.64695260        3.75861877
 C           -0.98299634       -1.63492243        2.96381470
 C            1.05774427       -2.89428285        3.01778880
 C           -0.29938921       -2.83515193        2.72075588
 C            2.79686151       -1.64417656        2.12735031
 C            1.98417086       -2.81686193        1.90125318
 C            2.82409082        0.73201961        1.65551181
 C            2.71300001       -0.59529370        1.21743502
 C            2.54901582        1.74723910        0.74242249
 C            0.89423863        2.52352272        2.24473799
 C            1.71905070        2.78856638        1.16958003
 C           -1.05296983        1.12444737        2.54124119
 C           -0.44624434        2.24151167        1.95341676
 C           -1.80283500       -1.10172276        1.96327519
 C           -1.82223527        0.28356255        1.74478526
 C           -2.40108576       -1.96470040        1.04254034
 C           -0.69198951       -3.60207073        1.63479545
 C           -1.90655603       -3.25811176        0.92616172
 C            1.45488623       -3.05271065        0.63876125
 C            0.31712855       -3.85139580        0.61995634
 C            2.24560529       -0.85951832       -0.07600630
 C            1.60659451       -2.07829918       -0.36430351
 C            2.60940376        1.45497393       -0.61736499
 C            2.27949699        0.15933441       -1.03333034
 C            2.53948999        2.52093172       -1.50888991
 C            1.23073688        3.68031990        0.23614771
 C            1.85705846        3.71837817       -1.06636552
 C           -0.96900434        2.74459111        0.75209935
 C           -0.20680091        3.68443187        0.04432468
 C           -2.40926441        0.80254174        0.59511203
 C           -1.96951925        2.02747409        0.08390705
 C           -3.18602021       -1.44281375        0.01625313
 C           -3.25465841       -0.00524035       -0.15687990
 C           -3.14286296       -2.04778032       -1.31082108
 C           -1.78481423       -3.85470432       -0.39182533
 C           -0.36552973       -4.07630951       -0.62757388
 C           -2.30701392       -3.13334336       -1.53622309
 C            0.93760075       -2.23373743       -1.58912590
 C            0.01077703       -3.26596562       -1.75871173
 C           -1.21473869       -3.00252917       -2.48892129
 C            1.72977581       -0.06468308       -2.30173015
 C            0.95750734       -1.20262120       -2.52779365
 C            2.14792357        2.28326268       -2.87923291
 C            1.69745484        0.96057904       -3.24643317
 C            0.82790519        4.03388609       -2.03825297
 C           -0.45819881        3.92934987       -1.36745036
 C            1.08214625        3.22197303       -3.21104719
 C           -2.37473169        2.42759021       -1.19081283
 C           -1.50573755        3.26923348       -1.99055458
 C           -3.44132080        0.26324022       -1.57190843
 C           -3.19504352       -0.97609648       -2.29136326
 C           -2.98219573        1.46378679       -2.09065962
 C           -1.21914621       -1.95114538       -3.38828322
 C            0.00381457       -1.19145675       -3.54937010
 C           -2.31074230       -0.98787280       -3.36589236
 C            0.50821436        1.13021192       -4.06240481
 C           -0.00928132        2.45869667       -3.78623956
 C           -1.29516518        2.59794422       -3.26926569
 C           -2.21288605        1.47105010       -3.32717749
 C           -0.37111628        0.06593726       -4.16396385
 C           -1.78649765        0.26856843       -3.88174264
