   70
C70 / DATE: 7/ 1/2024 / Origin: Program Fullerene / C70 from database
 C            1.20419550       -0.00111375        4.34515282
 C            2.50079901       -0.31924658        3.79452227
 C            2.47850615       -1.71992659        3.40637985
 C            0.39008124       -1.20540004        4.26384167
 C            1.09166548       -2.14508178        3.42105258
 C           -0.93336134       -0.79570091        3.86737124
 C            0.43372050        1.06807389        3.73890941
 C           -0.94920677        0.65677535        3.84292837
 C            0.86474874        1.64338004        2.54650593
 C            2.96613187        0.43062958        2.64899111
 C            2.18552160        1.45314118        2.10947836
 C            3.22110640       -1.84810139        2.16758692
 C            3.60748135       -0.51063764        1.74463791
 C            2.74294795       -2.72685535        1.21258590
 C            0.50670453       -2.56931321        2.22638955
 C            1.33862229       -3.12407242        1.25897206
 C           -1.56436584       -1.45982320        2.82237432
 C           -0.76507320       -2.09685877        1.85937121
 C           -2.78930239       -0.92944788        2.44009977
 C           -1.89363567        1.25152937        3.02165496
 C           -3.01265435        0.47229005        2.74508175
 C           -0.09834389        2.17968653        1.68180295
 C           -1.45375511        2.15790621        2.04702418
 C            0.27283185        2.65455690        0.41970812
 C            2.57361652        1.95420928        0.87463948
 C            1.60271526        2.62311919        0.03368509
 C            3.64915913       -0.19928757        0.38608361
 C            3.40414966        1.12334094        0.01677210
 C            3.06918297       -2.48048799       -0.17523149
 C            3.52245549       -1.21899376       -0.56598255
 C            0.87200649       -3.23179920       -0.10874516
 C            2.04364834       -3.14509161       -0.96003377
 C           -1.12569360       -2.03930292        0.49849229
 C           -0.28970734       -2.56830742       -0.48228089
 C           -3.25738362       -1.12622146        1.08634929
 C           -2.33126434       -1.45904716        0.11082671
 C           -4.01234943        0.96484882        1.82794897
 C           -4.20912524       -0.06892301        0.82036713
 C           -2.39411193        2.75121140        1.20034945
 C           -3.74233516        2.20951685        1.14365833
 C           -0.69728433        2.85034688       -0.55819828
 C           -2.00770239        3.09371794       -0.15916684
 C           -0.41262143        2.52807053       -1.89157820
 C            1.91773178        2.31711086       -1.35096557
 C            3.08468199        1.45135022       -1.36028955
 C            0.87089825        2.08641902       -2.24071179
 C            3.48647508       -0.89504748       -1.92083952
 C            3.18817476        0.46935399       -2.32724524
 C            1.87800976       -2.77369594       -2.28167880
 C            2.79132800       -1.78851950       -2.83335985
 C           -0.48236677       -2.21525509       -1.82063942
 C            0.54360004       -2.43423262       -2.74745122
 C           -2.49116062       -1.00230537       -1.20460989
 C           -1.58076588       -1.42752880       -2.18508855
 C           -4.17820202        0.57210968       -0.47292813
 C           -4.07437572        2.00536438       -0.25109985
 C           -3.10976631        2.74397543       -1.04545647
 C           -3.41285291        0.02332884       -1.49527623
 C           -1.45734110        2.39977926       -2.80089302
 C           -2.80675205        2.24196321       -2.30022795
 C           -3.16722818        0.86095077       -2.57557945
 C           -1.58641079       -0.83083579       -3.44707500
 C           -1.32506976        1.44522738       -3.87810693
 C           -2.31374836        0.40147955       -3.64140468
 C            1.05315430        1.20928449       -3.32301342
 C            2.19790284        0.41574061       -3.38757266
 C            2.04677528       -0.97582864       -3.77691612
 C            0.70383920       -1.52058612       -3.86610680
 C           -0.05125132        0.78462537       -4.05856503
 C           -0.32800044       -0.64153705       -4.13727740
