   70
C70 / DATE: 7/ 1/2024 / Origin: Program Fullerene / C70 from database
 C            1.29157394       -0.04717309        4.10776384
 C            2.44562937       -0.26546126        3.25506742
 C            2.36532951       -1.62760025        2.74929623
 C            0.43372565       -1.21668854        3.99836452
 C            1.02825593       -2.11837536        3.04080322
 C           -0.91060227       -0.75886581        3.75665024
 C            0.47225331        1.13084499        3.89956004
 C           -0.90671075        0.69520695        3.76794190
 C            0.94266816        2.13821831        3.07741795
 C            2.88540295        0.74687682        2.40523795
 C            2.18617774        1.95458002        2.33867086
 C            3.71881515        0.39896582        1.34683798
 C            2.94292200       -1.92384285        1.51867332
 C            3.83358689       -1.00256880        0.97240271
 C            2.31967266       -2.86450161        0.69488232
 C            0.25648280       -2.62721924        2.00111782
 C            0.93290471       -3.23125391        0.94945323
 C           -1.69141684       -1.39882057        2.80498497
 C           -1.06869566       -2.19215553        1.82018547
 C           -2.90016738       -0.78068298        2.52124767
 C           -1.78484073        1.36251719        2.91162642
 C           -2.93888716        0.67332007        2.53166690
 C            0.01107321        2.83819085        2.21419520
 C           -1.32062474        2.43151910        2.13001525
 C            2.04512620        2.62985022        1.05549628
 C            0.71798465        3.20329305        0.99549720
 C            3.66141058        1.17134538        0.11649708
 C            2.60058436        2.05025066       -0.07760980
 C            4.15226418       -1.05216670       -0.44271620
 C            4.07931041        0.30531781       -0.95997618
 C            2.51472359       -2.83641844       -0.74974583
 C            3.36869543       -1.90650783       -1.31365619
 C            0.27437744       -3.40371615       -0.32739450
 C            1.23202731       -3.08921806       -1.37728554
 C           -1.74600331       -2.50408912        0.62447875
 C           -1.04152222       -2.99676840       -0.47745754
 C           -3.69691681       -1.24853576        1.41574362
 C           -3.06942606       -2.10740930        0.43938862
 C           -3.71409239        1.10413934        1.38246983
 C           -4.21690538       -0.08383723        0.71546369
 C           -2.06409505        2.87667832        1.03796711
 C           -3.25202637        2.15746802        0.61411842
 C            0.02710033        3.20159014       -0.20548181
 C           -1.36142983        3.31132964       -0.16017086
 C            1.87108456        2.03002500       -1.27990327
 C            0.64844153        2.72566244       -1.36336709
 C            3.28241964        0.27987550       -2.15979955
 C            2.90085029       -1.09791261       -2.42538588
 C            2.33330216        1.26915152       -2.37278095
 C            0.81512895       -2.32943366       -2.47035634
 C            1.65132680       -1.33556046       -3.00153166
 C           -1.50055382       -2.73335391       -1.76665492
 C           -0.54119343       -2.35052006       -2.79196596
 C           -3.48815501       -1.63521208       -0.86811940
 C           -3.94540518       -0.26785524       -0.69969393
 C           -2.70242843       -1.94140245       -1.96415889
 C           -3.18843519        2.01435401       -0.83351778
 C           -2.16052113        2.92345807       -1.30982338
 C           -3.32487023        0.75340561       -1.41719611
 C           -0.07374422        2.74215157       -2.55551262
 C           -1.52157190        2.64691521       -2.50468382
 C            1.50115858        1.06319021       -3.46309484
 C            1.10439001       -0.30285465       -3.76675212
 C            0.36151515        1.92211046       -3.66129246
 C           -1.13104632       -1.27232266       -3.56505486
 C           -2.37548358       -0.89073696       -2.91239694
 C           -2.60682045        0.44448170       -2.57631373
 C           -1.89424846        1.44715776       -3.23184889
 C           -0.31030229       -0.29142851       -4.09193337
 C           -0.76055352        1.08902828       -4.06655087
