   70
C70 / DATE: 7/ 1/2024 / Origin: Program Fullerene / C70 from database
 C            1.04568753       -0.11724981        4.53374071
 C            2.27223985       -0.42406240        3.83079577
 C            2.17347380       -1.78741225        3.34294674
 C            0.19138637       -1.29375318        4.47344475
 C            0.81368827       -2.23612850        3.56601572
 C           -1.15539816       -0.84955737        4.19290936
 C            0.25775635        1.01514813        4.09011901
 C           -1.13070748        0.59885886        4.07511836
 C            0.70488522        1.81022090        3.03957115
 C            2.65570658        0.40960204        2.70978336
 C            1.93708701        1.55835923        2.41709576
 C            2.68302903       -1.81101999        1.98230229
 C            3.02968919       -0.45219063        1.60533690
 C            2.03140526       -2.59364134        1.04372933
 C            0.10899820       -2.72964815        2.47126818
 C            0.84931729       -3.24541545        1.41030366
 C           -1.82598439       -1.36706313        3.01822881
 C           -1.21922670       -2.34214730        2.23143129
 C           -1.94463574        0.96826380        2.92646832
 C           -2.47117011       -0.25398086        2.34958468
 C           -0.24639813        2.55158014        2.34032746
 C           -1.47878654        1.95622604        2.06609505
 C            0.21603092        3.54039560        1.48533049
 C            2.17192989        2.15620593        1.18546405
 C            1.56202435        3.38290547        0.97202729
 C            2.76245749       -0.02059479        0.30254401
 C            2.45669991        1.32922130        0.08597479
 C            2.24612839       -2.30492164       -0.29885070
 C            2.44210935       -0.96801181       -0.68067191
 C            1.85366977       -3.25755180       -1.22975263
 C            0.16672761       -3.97190067        0.44472995
 C            0.80176901       -4.17668196       -0.84408106
 C           -1.76398282       -2.58328458        0.96884030
 C           -1.21804521       -3.61484335        0.20600105
 C           -2.63358494       -0.32654171        0.97229103
 C           -2.49980293       -1.56581217        0.34679937
 C           -1.97002254        1.99307879        0.75921540
 C           -2.55237253        0.84159352        0.20615826
 C           -0.61226694        3.93518846        0.36389531
 C           -1.62267795        3.07043965       -0.05738904
 C            1.60643670        3.97238758       -0.34654526
 C            0.28998831        4.52793554       -0.60843323
 C            2.14253173        1.75561914       -1.20855737
 C            1.93744984        3.11065358       -1.45767030
 C            2.07344597       -0.53137443       -1.96182744
 C            1.76127330        0.81320875       -2.16472116
 C            1.60709635       -2.85815120       -2.59544546
 C            1.64021896       -1.44903343       -2.91667121
 C           -0.23043459       -4.12506152       -1.86347146
 C           -1.45609401       -3.67346126       -1.22688775
 C            0.30218630       -3.37481010       -2.98436838
 C           -2.84320947       -1.66968463       -0.99408498
 C           -2.21841626       -2.68152226       -1.82744629
 C           -2.86103543        0.78707750       -1.15935691
 C           -2.96411737       -0.45675462       -1.78190309
 C           -2.05564790        3.09766917       -1.37967200
 C           -2.58695953        1.88563462       -1.97076904
 C            0.01886091        4.34512393       -2.01682903
 C            1.07930173        3.50371492       -2.55773153
 C           -1.24601658        3.75111469       -2.39733912
 C            0.81437932        1.14276999       -3.14389628
 C           -1.88092836        1.65850778       -3.22624253
 C            0.45368170        2.46642905       -3.34972986
 C           -0.96041594        2.76206784       -3.41849409
 C            0.43896573       -1.14286722       -3.67136632
 C           -0.46708834       -2.26634457       -3.51773852
 C           -1.75045899       -2.02935923       -3.04503750
 C           -2.24233280       -0.66499244       -3.02656298
 C           -0.05509257        0.15243098       -3.59495425
 C           -1.43640224        0.36719880       -3.49138924
