   70
C70 / DATE: 7/ 1/2024 / Origin: Program Fullerene / C70 from database
 C            1.18851532        0.00740649        4.36975329
 C            2.49901604       -0.33547495        3.88220945
 C            2.47929361       -1.75096185        3.54159439
 C            0.37823064       -1.20007270        4.30852345
 C            1.08428227       -2.14111486        3.47174462
 C           -0.94081955       -0.79228333        3.90006538
 C            0.44170860        1.03755375        3.67689025
 C           -0.94183828        0.65900452        3.84141028
 C            0.85770488        1.47595752        2.41955834
 C            2.99577986        0.35597890        2.71596185
 C            2.13191174        1.14272808        1.94295858
 C            3.30446108       -1.91626112        2.36096857
 C            3.85102688       -0.60254297        2.04799984
 C            2.82306959       -2.70802729        1.32561549
 C            0.54022746       -2.49930955        2.23565566
 C            1.39501238       -3.00237794        1.25840202
 C           -1.56111378       -1.46577817        2.85598091
 C           -0.74567024       -2.05705879        1.87715666
 C           -2.79299034       -0.94791832        2.48254355
 C           -1.88890991        1.23428465        3.01467652
 C           -3.01544055        0.45468942        2.78430408
 C           -0.11396080        1.95098309        1.53532896
 C           -1.43989709        2.06152830        1.97763624
 C            0.18886164        2.09980331        0.17485690
 C            2.45496148        1.36378363        0.60157603
 C            1.45443239        1.75044594       -0.30345177
 C            4.22466265       -0.32352923        0.74783681
 C            3.67215672        0.86781268        0.13289112
 C            3.29004452       -2.45387269       -0.02545993
 C            4.13427085       -1.37313631       -0.25288190
 C            0.99455309       -2.95455373       -0.13299418
 C            2.17804211       -2.70506989       -0.93358914
 C           -1.09567484       -1.95233038        0.51569044
 C           -0.19188262       -2.32427972       -0.47919373
 C           -3.26536789       -1.14362893        1.13124510
 C           -2.33702531       -1.43333512        0.14163320
 C           -4.02826330        0.94120676        1.88161906
 C           -4.24734241       -0.10666390        0.89387956
 C           -2.38316331        2.66371783        1.14955984
 C           -3.75259126        2.17126310        1.17131605
 C           -0.78632173        2.55390946       -0.71853548
 C           -2.03964150        2.93633407       -0.23613074
 C           -0.60927745        2.36311284       -2.09287659
 C            1.69524289        1.75164189       -1.68769480
 C            0.62350616        1.90637738       -2.57195976
 C            3.88632387        0.71679942       -1.28410305
 C            4.08620946       -0.70665450       -1.53692000
 C            2.85743108        1.16672164       -2.19131899
 C            2.04406081       -1.95814746       -2.09874926
 C            3.07300628       -1.09995141       -2.49460138
 C            2.72344730        0.12329637       -3.18853114
 C           -0.34852598       -1.83007775       -1.77506424
 C            0.76820442       -1.75409896       -2.62767550
 C           -2.53274484       -0.96633949       -1.16775680
 C           -1.58062625       -1.27732896       -2.15192389
 C           -4.27517472        0.52401758       -0.40204284
 C           -4.15877849        1.95877076       -0.19902575
 C           -3.22551465        2.67832102       -1.04445415
 C           -3.54790242       -0.02761673       -1.44725505
 C           -1.73297567        2.33322462       -2.92433052
 C           -3.03678062        2.18259242       -2.32156339
 C           -3.40510060        0.79350212       -2.55679903
 C           -1.76323707       -0.81612159       -3.45534323
 C           -1.75647372        1.43045152       -4.05525272
 C           -2.62026986        0.32622890       -3.67114630
 C            0.69928570        1.26752885       -3.81655588
 C            1.57199896        0.12344047       -3.94407165
 C            0.68743826       -1.01668709       -3.80406105
 C           -0.51157565        0.85456784       -4.48796540
 C           -0.60550832       -0.58638146       -4.28776324
