   70
C70 / DATE: 7/ 1/2024 / Origin: Program Fullerene / C70 from database
 C            1.09483919       -0.01167664        4.53283833
 C            2.34608536       -0.33827959        3.89902585
 C            2.26261533       -1.73283204        3.49371344
 C            0.27531036       -1.21627330        4.50114757
 C            0.86401990       -2.08523024        3.50605207
 C           -1.08838529       -0.79141483        4.31701399
 C            0.29010297        1.04592398        3.96134823
 C           -1.06892900        0.66169967        4.25258699
 C            0.58561345        1.53811581        2.68349260
 C            2.74015450        0.40866013        2.72277412
 C            1.83487925        1.26694540        2.09839440
 C            2.96320048       -1.84509040        2.24124393
 C            3.47416648       -0.52804764        1.90028581
 C            2.38774067       -2.57840933        1.21720156
 C            0.21945238       -2.28437400        2.27974098
 C            0.98173902       -2.66500451        1.16423544
 C           -1.79910493       -1.24329870        3.13810344
 C           -1.10163366       -1.84374193        2.09496051
 C           -2.08014502        1.04491593        3.30645538
 C           -2.70931872       -0.17098491        2.81798460
 C           -0.44799438        2.09553544        1.90561114
 C           -1.77675150        2.01214509        2.36025683
 C           -0.18285580        2.46766042        0.57780258
 C            2.04993758        1.57807759        0.75643337
 C            1.11746589        2.37030443        0.08589867
 C            3.63700612       -0.24119942        0.55130246
 C            3.08680404        0.93985083        0.05173089
 C            3.10621816       -2.56594014        0.03228509
 C            3.78283434       -1.32733802       -0.31455132
 C            2.50625927       -3.10323177       -1.16215885
 C            0.33549232       -2.86310452       -0.06409641
 C            1.07089540       -3.25199972       -1.18460692
 C           -1.62184312       -1.74654076        0.80287412
 C           -0.97876953       -2.42116821       -0.23385141
 C           -3.26083857       -0.10389411        1.54787047
 C           -2.75725846       -0.94924331        0.54489687
 C           -2.80615614        2.27301841        1.47078051
 C           -3.69352683        1.16114093        1.17523311
 C           -1.21912792        2.88287185       -0.27370990
 C           -2.51975355        2.92014106        0.21364736
 C           -1.00232335        2.97791300       -1.65608784
 C            1.39079777        2.83070643       -1.19469189
 C            0.29854988        2.95598481       -2.13473886
 C            3.29770816        1.23613153       -1.29030975
 C            2.50852116        2.26952755       -1.92364961
 C            3.65690907       -1.13485169       -1.75049078
 C            2.88098581       -2.24494605       -2.27657889
 C            3.41187497        0.14023746       -2.23721491
 C            0.63531367       -2.83080835       -2.50291494
 C            1.67339531       -1.96378865       -3.03411532
 C           -1.54666568       -2.43659801       -1.50264195
 C           -0.68161402       -2.45734162       -2.66922766
 C           -3.21839366       -0.79420296       -0.77564904
 C           -2.63421645       -1.52937806       -1.80223578
 C           -4.21786742        1.35715875       -0.14977003
 C           -3.62361630        2.57936495       -0.66741665
 C           -3.98981722        0.31676914       -1.12453237
 C           -1.99315309        2.54795943       -2.53733610
 C           -3.34773162        2.35951562       -2.06899382
 C           -3.72380066        0.98962459       -2.38282004
 C           -0.96366276       -1.24752304       -3.41437660
 C           -2.31648975       -0.87180918       -3.06667377
 C           -1.68198834        1.45362121       -3.44123382
 C           -2.70789474        0.43893641       -3.26066316
 C            0.59310992        2.06669101       -3.24733140
 C            1.99171637        1.72284608       -3.17121797
 C            2.36083805        0.32731684       -3.22411135
 C            1.36713213       -0.64196234       -3.36276943
 C           -0.34216513        1.09044296       -3.57825827
 C            0.02410788       -0.26622675       -3.52419592
