   70
C70 / DATE: 7/ 1/2024 / Origin: Program Fullerene / C70 from database
 C            1.56817144        0.04086043        4.62311650
 C            0.76574223       -1.16336667        4.51761714
 C            1.25766065       -1.93931976        3.39357550
 C            2.58358391       -0.01504869        3.58836886
 C            2.45005508       -1.27472155        2.89128196
 C            2.48622123        1.19517575        2.80356557
 C            0.70178696        1.16883932        4.32644775
 C            1.26286876        1.87090703        3.19629638
 C           -0.62211812       -0.75882374        4.50666428
 C           -0.65005126        0.67144843        4.21599719
 C           -1.52377162       -1.57489984        3.84392528
 C            0.33827027       -2.46447822        2.48008872
 C           -1.01755970       -2.48205552        2.81568299
 C            0.72335712       -2.61451875        1.14158690
 C            2.67204872       -1.29126621        1.52430822
 C            2.02585796       -2.26702052        0.78398960
 C            2.76478042        1.12310943        1.44402035
 C            3.07020692       -0.11876883        0.87174277
 C            2.23728424        2.11596984        0.62628924
 C            0.42322097        2.31637530        2.18369184
 C            1.02419524        2.70947912        0.99235490
 C           -1.46789742        1.13684661        3.18530389
 C           -0.93330412        1.94678784        2.16946871
 C           -2.71976624       -0.95403612        3.31515795
 C           -2.65211519        0.44924535        2.94853496
 C           -2.01058312       -2.55115535        1.75818842
 C           -3.11619209       -1.69888339        2.13650179
 C           -0.24761654       -2.75846472        0.14089879
 C           -1.59102722       -2.52635149        0.43617754
 C            0.14548243       -2.90472750       -1.19235160
 C            2.45407884       -2.47134344       -0.51502119
 C            1.50174373       -2.93816009       -1.50072471
 C            3.33358285       -0.18590823       -0.50256207
 C            3.25000715       -1.42739060       -1.13526261
 C            2.68169551        2.17519498       -0.68685957
 C            3.27717788        0.98401350       -1.26565056
 C            1.87100482        2.82007207       -1.70420880
 C            0.24110905        3.35288814        0.04645022
 C            0.66093508        3.39451895       -1.34336183
 C           -1.72060794        2.28169614        1.05451277
 C           -1.19258196        3.13902482        0.08613671
 C           -3.31895232        0.59196769        1.67209415
 C           -3.59602659       -0.74442629        1.16130143
 C           -2.88965326        1.56238360        0.77492480
 C           -2.42713128       -1.97413209       -0.53841917
 C           -3.35516205       -0.98534650       -0.18559456
 C           -0.78188600       -2.67963915       -2.20985556
 C           -2.09494000       -2.15525211       -1.87624295
 C           -0.35934327       -2.05854965       -3.45864309
 C            1.95578644       -2.46298741       -2.79696837
 C            3.02310396       -1.50131157       -2.56785367
 C            0.99395697       -1.86179320       -3.70028572
 C            2.89364935        0.93634339       -2.67152186
 C            1.96933921        2.03126299       -2.92219875
 C            2.70003727       -0.28978728       -3.29379334
 C            1.48043897       -0.53468579       -4.04943969
 C            0.84041987        1.82095276       -3.70649709
 C            0.57645521        0.50157096       -4.26116695
 C           -0.51608512        3.19195516       -2.17125564
 C           -1.66554527        3.06900512       -1.28740516
 C           -0.43253878        2.40924111       -3.31869437
 C           -3.31432671        1.42374496       -0.54569808
 C           -3.56290295        0.08398118       -1.04936737
 C           -2.69048261        2.19273464       -1.60511911
 C           -2.42276228       -1.12205498       -2.84601056
 C           -1.31080738       -1.00664012       -3.77580803
 C           -0.85290193        0.25026409       -4.15818393
 C           -1.48113525        1.44742950       -3.61985372
 C           -3.08744272        0.01798084       -2.41835021
 C           -2.58009841        1.33404434       -2.77603419
