   70
C70 / DATE: 7/ 1/2024 / Origin: Program Fullerene / C70 from database
 C            1.39933888       -0.14710965        4.01735083
 C            2.43181600       -0.32894737        3.01435261
 C            2.21842773       -1.62341355        2.38077222
 C            0.53710190       -1.31433978        3.98929578
 C            1.02188063       -2.20888049        2.95155750
 C           -0.83839487       -0.85430142        3.92263967
 C            0.55897574        1.02996597        3.94404127
 C           -0.80669460        0.58389586        3.71740583
 C            1.02390366        2.12740034        3.23922527
 C            2.82069958        0.75162092        2.22553451
 C            2.22366944        2.00086579        2.41760989
 C            3.46532632        0.48553194        1.02155436
 C            2.46695197       -1.75327172        1.01758339
 C            3.33830773       -0.84049040        0.43512532
 C            1.56789128       -2.46326634        0.21018776
 C            0.10177510       -2.81087163        2.10733444
 C            0.47632302       -3.12281916        0.80147418
 C           -1.74555696       -1.61120909        3.20133026
 C           -1.25369949       -2.74229140        2.43248229
 C           -2.71988294       -0.93414744        2.36646434
 C           -1.55168838        1.15883780        2.68557297
 C           -2.51449944        0.39767310        2.00617734
 C            0.07459276        2.93183589        2.49411429
 C           -1.19454349        2.42400423        2.21495091
 C            2.08174981        2.91614591        1.29105228
 C            0.82044301        3.61697850        1.45110342
 C            3.39806906        1.45287331       -0.06153117
 C            2.50175199        2.51452364        0.02565514
 C            3.37150121       -0.69430479       -1.00517240
 C            3.54357407        0.72156666       -1.30446425
 C            1.72254854       -2.44222876       -1.18758712
 C            2.52386929       -1.46765541       -1.78807845
 C            0.86228767       -3.17566672       -2.00174618
 C           -0.42350073       -3.83868748        0.01890492
 C           -0.21824177       -3.93068332       -1.40704422
 C           -2.25186093       -3.03392495        1.41778067
 C           -3.15429931       -1.89098174        1.36113201
 C           -1.84600251       -3.65417031        0.24410672
 C           -3.59762260       -1.42057530        0.13388493
 C           -3.12512437        0.89567952        0.84874496
 C           -3.58959120        0.00849428       -0.12094303
 C           -1.94750190        3.01575566        1.21018422
 C           -2.86301358        2.19785896        0.44178031
 C            0.14724434        4.06178536        0.32676593
 C           -1.29884749        3.93193252        0.28660671
 C            1.83411985        2.97355491       -1.11950150
 C            0.65911984        3.71564677       -0.98788446
 C            2.98728140        1.24427829       -2.45879314
 C            2.06245367        2.35898152       -2.35223489
 C            2.24212658       -1.05611098       -3.09063595
 C            2.46485942        0.33011090       -3.45811992
 C            0.32348976       -2.54439040       -3.19247049
 C            0.98356512       -1.44240186       -3.69970121
 C           -1.45242494       -3.51208552       -2.05802079
 C           -2.43640271       -3.25480900       -1.02319674
 C           -3.19175207       -2.09086084       -1.09148107
 C           -1.10689751       -2.44609594       -2.98097378
 C           -3.19395657        0.21913819       -1.50529651
 C           -2.84672285       -1.06613827       -2.06954123
 C           -1.68568113       -1.18667613       -2.82028353
 C           -2.59287207        2.43775146       -0.96807512
 C           -1.67964292        3.54881922       -1.06284785
 C           -0.47471405        3.37247462       -1.83289340
 C           -2.43346486        1.34107746       -1.80963780
 C            0.91611690        2.06432019       -3.19834365
 C            1.19409834        0.85741476       -3.93341868
 C            0.22846592       -0.21567716       -3.87923074
 C           -0.95566209       -0.04397774       -3.16230552
 C           -0.35325517        2.27815540       -2.67990528
 C           -1.25170206        1.19651217       -2.56047937
