   70
C70 / DATE: 7/ 1/2024 / Origin: Program Fullerene / C70 from database
 C            1.21630295        0.29323653        4.72668123
 C            2.45986017        0.04311008        4.03142426
 C            2.47805953       -1.36351242        3.67463352
 C            0.38506779       -0.89560792        4.57870585
 C            1.11242885       -1.84679653        3.76787899
 C           -0.91985857       -0.46572182        4.13414540
 C            0.42221168        1.43556164        4.32394883
 C           -0.94864563        0.98018090        4.20208609
 C            0.75188155        2.13070586        3.08955289
 C            2.75358237        0.78917975        2.82093740
 C            1.83173484        1.71208719        2.31480085
 C            3.16095920       -1.48319830        2.39998855
 C            3.39649269       -0.13675872        1.90146362
 C            2.70716694       -2.44009398        1.50919353
 C            0.51607123       -2.38175383        2.62690550
 C            1.34952915       -2.94919492        1.66345323
 C           -1.49987968       -1.06337937        3.02359064
 C           -0.79418046       -2.01902165        2.27553052
 C           -2.54167762       -0.38084698        2.40693406
 C           -1.54757644        1.69018018        3.08774176
 C           -0.50160175        2.45184369        2.42903628
 C           -2.44091536        1.00945456        2.27565871
 C           -0.52931446        2.54162477        1.03890305
 C            1.81719422        1.95763552        0.94189311
 C            0.66965660        2.48503344        0.33274824
 C            3.28909091        0.11726356        0.53848343
 C            2.79596131        1.35725718        0.15307158
 C            2.92226559       -2.22409485        0.09206804
 C            3.22285451       -0.94449276       -0.37118168
 C            0.83279412       -3.22077260        0.33439240
 C            1.92057256       -3.00440778       -0.60428343
 C           -1.31813141       -2.43322710        1.04093384
 C           -0.44846490       -2.79382712        0.01089248
 C           -3.30484548       -1.08258460        1.48627445
 C           -2.63905857       -2.12338145        0.72421176
 C           -4.14871634       -0.33450936        0.57327487
 C           -2.73923960        1.57864566        1.04392009
 C           -1.72174456        2.26710577        0.36460729
 C           -3.82338713        1.05846882        0.35165223
 C           -1.75744340        2.40527612       -1.02868528
 C            0.65371319        2.66966998       -1.05014001
 C           -0.56977748        2.62712203       -1.73742189
 C            2.89768882        1.71752504       -1.17770047
 C            1.86262563        2.55926761       -1.73814478
 C            3.03531911       -0.65638615       -1.72691080
 C            3.16112737        0.66754051       -2.14277314
 C            1.61865864       -2.66529899       -1.91013940
 C            2.33848497       -1.56572061       -2.52920274
 C           -0.75714450       -2.46543644       -1.31478254
 C            0.22426015       -2.53348688       -2.29546574
 C           -2.99468891       -1.93499805       -0.67190277
 C           -4.10081660       -1.00159443       -0.71423449
 C           -1.97139093       -1.85167053       -1.61291025
 C           -3.95716588        1.31322965       -1.06222719
 C           -2.89745456        2.02798494       -1.74041511
 C           -4.09998972        0.02423045       -1.72959674
 C           -2.05975580       -0.96719251       -2.70370761
 C           -2.73062210        1.35859629       -3.01520238
 C           -3.08607002       -0.02134939       -2.76215918
 C           -0.59917129        2.49754920       -3.13047361
 C           -1.57142008        1.60137815       -3.72108078
 C            1.88075238        2.34091598       -3.16960164
 C            2.58645976        1.09073322       -3.40890924
 C            0.62535461        2.28307144       -3.87444431
 C            1.50772064       -1.09070232       -3.62551473
 C            0.16052833       -1.60704787       -3.40923763
 C           -0.94088677       -0.76083613       -3.52072002
 C           -0.80614304        0.45945638       -4.18712494
 C            1.68352488        0.19736945       -4.10865932
 C            0.51922177        0.96941280       -4.49666471
