   70
C70 / DATE: 7/ 1/2024 / Origin: Program Fullerene / C70 from database
 C            1.26742013       -0.22667033        4.37630945
 C            2.54682162       -0.56009584        3.79828934
 C            2.49016552       -1.94472502        3.35047643
 C            0.43775016       -1.42128327        4.34967242
 C            1.15562984       -2.44831303        3.62027779
 C           -0.88417245       -1.02663146        3.89489436
 C            0.49954835        0.85111419        3.78665350
 C           -0.88126735        0.42007159        3.73344881
 C            1.00403298        1.57071756        2.70896374
 C            3.03493801        0.23130687        2.68605959
 C            2.27481763        1.28655703        2.17948193
 C            2.99870976       -1.97988858        1.98844427
 C            3.63776019       -0.69784373        1.75235175
 C            2.22235747       -2.55099942        0.97933203
 C            0.49093708       -3.15358807        2.62739972
 C            1.12095565       -3.32543954        1.32600517
 C           -1.55895194       -1.80555273        2.95710966
 C           -0.92847434       -2.91732240        2.39829755
 C           -2.63969649       -1.23475317        2.29329710
 C           -1.71969520        0.98436121        2.77881304
 C           -2.77659638        0.21194196        2.30297373
 C            0.11370152        2.34957702        1.97353945
 C           -1.25667716        2.05618195        2.00857770
 C            0.62629507        3.20370807        1.00552405
 C            2.63881249        1.82180102        0.93910434
 C            1.90533703        2.87757665        0.40909411
 C            3.81929379       -0.28486391        0.44546396
 C            3.44505903        1.07274675        0.08157236
 C            2.36347613       -2.09814147       -0.33569878
 C            3.34054696       -1.14358917       -0.61935169
 C            1.39960537       -2.41072589       -1.30471703
 C            0.06510871       -3.53385744        0.35694961
 C           -1.20884936       -3.29127682        1.02026591
 C            0.23243824       -3.09603215       -0.94946428
 C           -3.01290387       -1.70327155        0.96642130
 C           -2.22669933       -2.65197945        0.31694846
 C           -3.47121657        0.60187514        1.08838842
 C           -3.53260100       -0.56292288        0.22202930
 C           -2.11983505        2.63525043        1.07913681
 C           -3.20746054        1.84152851        0.53319684
 C           -0.23483593        3.73031682       -0.03861415
 C           -1.59360687        3.45990605        0.00449862
 C            1.75390240        2.98186219       -1.03440217
 C            0.48568494        3.63846061       -1.29958335
 C            3.15901045        1.07167179       -1.34641115
 C            3.21133596       -0.30936573       -1.79870886
 C            2.17971442        1.92917702       -1.84203780
 C            1.52351406       -1.88120312       -2.59093036
 C            2.36462161       -0.71725954       -2.81060196
 C            0.34532046       -1.72913535       -3.42856196
 C           -0.91276604       -2.96276026       -1.72948079
 C           -2.17303622       -2.65120585       -1.07499390
 C           -0.86681547       -2.23442478       -2.98485367
 C           -3.23865415       -0.43936766       -1.13346443
 C           -2.79254571       -1.56598686       -1.81817828
 C           -2.07001331       -1.41976703       -3.07022157
 C           -3.15963725        1.97031088       -0.91119024
 C           -2.30158597        3.10539952       -1.21612388
 C           -3.10913170        0.82860955       -1.71212043
 C           -0.19776944        3.34047520       -2.46945170
 C           -1.64039564        3.14679186       -2.43700822
 C            1.42538893        1.55662507       -2.96044702
 C            1.56289811        0.27642418       -3.49952945
 C            0.39965464       -0.40980480       -4.04054751
 C            0.36270756        2.35639823       -3.37857694
 C           -2.02273923       -0.17504586       -3.68005223
 C           -2.67536443        0.94863555       -3.03188086
 C           -1.97524926        2.15389960       -3.44217521
 C           -0.77262149        0.30505778       -4.25126832
 C           -0.74340714        1.74875628       -4.09861446
