   70
C70 / DATE: 7/ 1/2024 / Origin: Program Fullerene / C70 from database
 C            1.07754100       -0.06424170        4.62408640
 C            2.35307467       -0.38703243        4.04300311
 C            2.25416749       -1.73604247        3.49873990
 C            0.25062537       -1.25607827        4.51358440
 C            0.84900898       -2.07110322        3.47839320
 C           -1.10575685       -0.80292154        4.32764147
 C            0.31464703        1.01731089        4.03892754
 C           -1.06055513        0.65100773        4.27202982
 C            0.67498578        1.52461488        2.78221242
 C            2.84274981        0.44259098        2.96567354
 C            1.97121116        1.30981309        2.29306036
 C            2.97845596       -1.72756617        2.24458912
 C            3.66270530       -0.45061863        2.17977994
 C            2.35533249       -2.18885066        1.08868840
 C            0.21154459       -2.19111921        2.24337937
 C            0.97344461       -2.44597551        1.09776665
 C           -1.82495550       -1.23468569        3.14548253
 C           -1.14461638       -1.86170796        2.10762842
 C           -2.03024113        1.05830062        3.29338056
 C           -2.70094336       -0.13778723        2.81235042
 C           -0.31884227        2.04555839        1.93481417
 C           -1.66575385        1.99782194        2.34184160
 C            0.00132387        2.37431256        0.60492484
 C            2.30105900        1.68906384        0.98818678
 C            1.30524580        2.16810416        0.12246809
 C            4.06914505       -0.00849126        0.93989105
 C            3.52510285        1.25059059        0.47075221
 C            2.99615604       -1.93743564       -0.12574672
 C            3.95241911       -0.92234292       -0.18185345
 C            2.42128138       -2.40382704       -1.30262659
 C            0.31816351       -2.73242405       -0.10046697
 C            1.07631248       -2.94141045       -1.24835830
 C           -1.70596192       -1.81958136        0.83238190
 C           -1.04716446       -2.46147511       -0.21298473
 C           -3.24149911       -0.06907997        1.53603644
 C           -2.81167070       -0.99055705        0.56816423
 C           -2.65777416        2.28233770        1.41909332
 C           -3.58724238        1.20763177        1.11382935
 C           -0.98758567        2.88981044       -0.24654630
 C           -2.31056396        2.90742473        0.16890199
 C           -0.72928356        3.02925839       -1.60423900
 C            1.59734572        2.37932874       -1.23817355
 C            0.57230475        2.68689148       -2.11613717
 C            3.75191103        1.26882653       -0.95673015
 C            4.04449566       -0.09698831       -1.37025480
 C            2.70335397        1.76437446       -1.80589469
 C            2.53267187       -1.62147082       -2.52939588
 C            3.20352949       -0.41174752       -2.50940334
 C            2.48241340        0.79566121       -2.86828624
 C            0.47815498       -2.73501345       -2.55359883
 C            1.25947129       -1.70295703       -3.21757455
 C           -1.68913783       -2.60046332       -1.43842410
 C           -0.90129869       -2.69491350       -2.65789764
 C           -3.29425830       -0.88090879       -0.74607557
 C           -2.84984872       -1.77551422       -1.71588271
 C           -4.05615708        1.39692877       -0.23530887
 C           -3.35569836        2.54938175       -0.77861476
 C           -3.89549392        0.30711571       -1.17006566
 C           -1.71613307        2.58391802       -2.58050244
 C           -2.98442254        2.23103496       -2.14503281
 C           -3.49664574        0.89950027       -2.43646929
 C            0.38849036        1.83480250       -3.28216686
 C            1.20534299        0.71386056       -3.42312084
 C            0.62556091       -0.54090451       -3.66353846
 C           -1.03289162        1.75109862       -3.55731990
 C           -1.48407907       -1.78897859       -3.62877503
 C           -2.74897116       -1.32160399       -3.09453940
 C           -2.85112930        0.09990913       -3.36952589
 C           -0.71402552       -0.62815106       -4.04447385
 C           -1.58014842        0.53378521       -3.93567822
