   70
C70 / DATE: 7/ 1/2024 / Origin: Program Fullerene / C70 from database
 C            1.28993512        0.07713296        4.74461114
 C            2.48149974       -0.16939935        3.96206734
 C            2.44147701       -1.55160204        3.50862163
 C            0.44376774       -1.10309231        4.65389772
 C            1.16047036       -2.11398989        3.89364399
 C           -0.86981438       -0.67701887        4.19387943
 C            0.47653703        1.22846308        4.41877326
 C           -0.89079083        0.76802517        4.23581063
 C            0.81610837        2.03869274        3.25978946
 C            2.75911059        0.66265830        2.80143214
 C            1.90285727        1.70604376        2.44523318
 C            2.82543715       -1.56527650        2.10581494
 C            3.24591130       -0.21918233        1.76087710
 C            2.06331644       -2.28599233        1.18487968
 C            0.45734274       -2.86419603        2.96251489
 C            1.03826491       -3.10270663        1.64830002
 C           -1.45110870       -1.33228452        3.11077871
 C           -0.95045026       -2.57479764        2.74859894
 C           -2.21790527       -0.61704919        2.18243677
 C           -1.44022816        1.47795993        3.10221957
 C           -0.43744708        2.41062971        2.62909514
 C           -2.16959240        0.78453731        2.15134984
 C           -0.41791057        2.72740999        1.27735773
 C            1.89592032        2.14324477        1.11658509
 C            0.82065127        2.91554117        0.67776112
 C            3.11345930        0.18002321        0.44420257
 C            2.68593845        1.47732938        0.17100676
 C            2.07968886       -1.88857088       -0.15668946
 C            2.88082971       -0.80072608       -0.50756354
 C            1.08634846       -2.33126301       -1.04685393
 C           -0.05682018       -3.43504636        0.76181776
 C           -1.29811197       -3.12219112        1.45658517
 C            0.03282411       -3.13383225       -0.59213305
 C           -2.82031145       -1.29459111        1.11280803
 C           -2.32819692       -2.55211399        0.72228868
 C           -3.62417689       -0.55331908        0.24157461
 C           -2.43410304        1.43826072        0.95436520
 C           -1.50332531        2.36490149        0.47080657
 C           -3.35232194        0.86400342        0.09088899
 C           -1.45070156        2.65782888       -0.89668793
 C            0.84783661        3.43706786       -0.60413178
 C           -0.38700558        3.42430814       -1.36821068
 C            2.66148864        1.89444005       -1.16304975
 C            1.90965945        3.02137336       -1.49789515
 C            2.99809550       -0.43911080       -1.83748187
 C            3.04406883        0.97848758       -2.14923370
 C            1.04236806       -1.80636834       -2.34407998
 C            2.12484859       -1.06681434       -2.80747667
 C           -0.18597175       -1.68103916       -2.99511046
 C           -1.15285312       -3.17595027       -1.32228140
 C           -2.39977098       -2.94078153       -0.61230346
 C           -1.23873855       -2.49203415       -2.59793871
 C           -3.96382337       -1.07425942       -1.06893584
 C           -3.31970643       -2.28630519       -1.51477350
 C           -2.59621015       -1.98990971       -2.74049610
 C           -3.27219838        1.15855117       -1.32698185
 C           -2.18390943        1.88245246       -1.79905848
 C           -3.68391737       -0.03422167       -2.04633171
 C           -2.78133551       -0.58261299       -3.04093688
 C           -0.47893176       -0.50421324       -3.68658820
 C           -1.60368322        1.50128141       -3.01288509
 C           -1.66761134        0.16434287       -3.40056909
 C           -0.02897042        3.35113462       -2.77254591
 C            1.41727689        3.21415555       -2.85258397
 C           -0.62034381        2.30374495       -3.57979225
 C            2.58942438        1.12387579       -3.52098212
 C            1.91924548       -0.11445736       -3.88665939
 C            0.55948787        0.21308378       -4.26663638
 C            1.71422471        2.22360646       -3.86536424
 C            0.45257678        1.66172762       -4.32143127
