   70
C70 / DATE: 7/ 1/2024 / Origin: Program Fullerene / C70 from database
 C            1.69420712       -0.09704461        5.53131293
 C            0.80772975       -1.22942876        5.74598059
 C            1.34490277       -2.34832106        5.00054935
 C            2.66047057       -0.46422282        4.50880306
 C            2.47202437       -1.86399420        4.21521211
 C            2.54481933        0.49152709        3.41601415
 C            0.89486056        0.98194604        4.99043527
 C            1.57676831        1.49683481        3.81152880
 C           -0.48829564       -0.89980764        5.17070062
 C           -0.46457481        0.49948836        4.81337146
 C            0.32106288       -2.78334650        4.06560056
 C           -0.79241140       -1.86094879        4.12590625
 C            2.22734033       -2.23563748        2.84024999
 C            0.96427168       -2.94681533        2.78883206
 C            2.52111045        0.04745702        2.09133411
 C            2.48067500       -1.32656856        1.81107053
 C            2.06795296        0.94005177        1.10927738
 C            0.78249864        2.04859685        2.81394482
 C            1.23683973        1.99929499        1.49160050
 C           -1.10493346        0.89299879        3.65087476
 C           -0.59276966        2.01496082        3.02260559
 C           -1.32344968       -1.39325641        2.91951059
 C           -1.73153712       -0.06294205        2.83833359
 C            0.21310520       -2.74649669        1.64699653
 C           -1.00229457       -2.05951899        1.73277180
 C            2.03298816       -1.70360796        0.54925681
 C            0.93682343       -2.55938508        0.49052762
 C            2.09289100        0.54015724       -0.22883643
 C            2.20432370       -0.81859457       -0.51002597
 C            1.58189052        1.38912374       -1.21072425
 C            0.47538198        2.66148440        0.52331468
 C            0.71289243        2.42619328       -0.83887385
 C           -1.39766446        2.59999467        2.07532747
 C           -0.75434032        3.18620034        0.92534450
 C           -2.32166229        0.39571817        1.65457862
 C           -2.46297548        1.77585752        1.54311009
 C           -1.57623743       -1.62030737        0.52911565
 C           -2.22735665       -0.38212334        0.48303114
 C            0.23726683       -2.59466681       -0.68912123
 C           -1.08380623       -2.15595095       -0.66401508
 C            1.84122394       -1.26788913       -1.78010696
 C            0.96052677       -2.35010106       -1.83489159
 C            1.66597339        0.99751318       -2.55087904
 C            1.85782885       -0.36162268       -2.84085615
 C            1.15202702        1.86101455       -3.51358606
 C           -0.15919622        2.98223376       -1.79028552
 C            0.05064632        2.71420780       -3.13513425
 C           -1.81225192        3.34818265       -0.04163205
 C           -2.83519722        2.35962300        0.28011306
 C           -1.48637657        3.17949587       -1.42943814
 C           -2.58374815        0.16194392       -0.77153121
 C           -2.96483170        1.49616279       -0.86876955
 C           -2.47252116        2.27253593       -1.98520362
 C           -1.65521916       -1.77353357       -1.87775552
 C           -2.23920602       -0.50364266       -1.95796767
 C            0.30998337       -2.62500056       -3.01980652
 C           -1.11573418       -2.35059538       -3.02956136
 C            1.62545966       -0.86290590       -4.12576791
 C            0.87149423       -2.09400525       -4.23660345
 C            0.84643381        1.37891628       -4.85031410
 C            1.16546504        0.01265916       -5.18372641
 C           -1.09346003        2.21690826       -3.87666708
 C           -2.11169000        1.61469903       -3.14421332
 C           -2.21184269        0.21979131       -3.17206237
 C           -0.58691061        1.55475625       -5.05468773
 C           -1.43960561       -1.79368196       -4.32410026
 C           -0.23746773       -1.87202010       -5.14216569
 C           -0.03122575       -0.58032695       -5.76600191
 C           -1.92395981       -0.43455605       -4.37182196
 C           -1.14740638        0.26433761       -5.38940279
