   70
C70 / DATE: 7/ 1/2024 / Origin: Program Fullerene / C70 from database
 C            1.32534590       -0.04125832        4.42763102
 C            2.64215165       -0.27415530        3.86610678
 C            2.66130101       -1.62513874        3.33501844
 C            0.50766644       -1.21065165        4.14717337
 C            1.30479814       -2.14564776        3.38293344
 C           -0.74114207       -0.75350550        3.58220849
 C            0.58199494        1.13183415        4.00487354
 C           -0.73917767        0.69803145        3.57818720
 C            1.22776667        2.11990662        3.27503511
 C            3.13266389        0.61673875        2.82842273
 C            2.49733418        1.83126953        2.61493240
 C            3.33948787       -1.59149229        2.05225549
 C            3.50273494       -0.19457391        1.67994355
 C            2.92636074       -2.48677100        1.07916795
 C            0.77072854       -2.71302430        2.22781902
 C            1.65619277       -3.17350207        1.26194661
 C           -1.26433158       -1.40354473        2.47834869
 C           -0.55073887       -2.43737475        1.85490600
 C           -2.25976867       -0.75083208        1.76707019
 C           -1.37604896        1.36872323        2.53063499
 C           -2.21447127        0.64419207        1.66850610
 C            0.44413443        2.93207144        2.36481570
 C           -0.89534717        2.62308003        2.13946094
 C            2.41028914        2.34715058        1.26086825
 C            1.28099562        3.25096081        1.21933871
 C            3.14752862        0.21482965        0.39206560
 C            2.62262849        1.49846224        0.18346983
 C            2.98756351       -2.08273105       -0.31290286
 C            3.10308708       -0.73484044       -0.63359014
 C            1.15566662       -3.51748511       -0.05229532
 C            2.03167710       -2.90090590       -1.03918520
 C           -1.07807041       -3.00795323        0.68756847
 C           -0.21096595       -3.52430066       -0.29067045
 C           -2.98887952       -1.48869870        0.84756640
 C           -2.41152939       -2.73193053        0.37251917
 C           -3.57971977       -0.81126056       -0.28967747
 C           -2.80730926        1.28080899        0.57411819
 C           -3.25147410        0.51961967       -0.50728368
 C           -1.52518162        3.29173224        1.09771135
 C           -2.62134845        2.64618017        0.40434328
 C            0.64880960        3.49769114        0.00690848
 C           -0.68455626        3.89535633        0.07873055
 C            2.07892225        1.83978161       -1.05419066
 C            1.11422575        2.85361802       -1.14988382
 C            2.77206725       -0.33800650       -1.92215047
 C            2.34267443        1.02721910       -2.15100384
 C            1.48043513       -2.41999322       -2.22611598
 C            1.94408147       -1.21045958       -2.74630709
 C           -0.60146990       -3.56653334       -1.62650480
 C            0.22518044       -2.89071564       -2.61301389
 C           -2.91512774       -2.95974570       -0.96823687
 C           -3.55613297       -1.73244643       -1.41259764
 C           -1.98618227       -3.36794097       -1.99415125
 C           -0.65255628       -2.03690877       -3.39940156
 C           -2.90594822       -1.30664558       -2.63775636
 C           -2.02084490       -2.37310832       -3.05553869
 C           -2.95229310        0.93467693       -1.80709583
 C           -2.45724554        0.00521189       -2.72064034
 C           -2.66828454        3.19945645       -0.93939901
 C           -1.47536976        4.01119628       -1.12754062
 C           -2.76278122        2.28588949       -2.06163365
 C            0.46279982        3.06150364       -2.36916066
 C           -0.87037257        3.63344452       -2.38500381
 C           -1.74820838        2.66696928       -3.02556536
 C            1.42985662        1.01742022       -3.27983546
 C            1.03988746       -0.36364519       -3.50899252
 C           -0.30741775       -0.70321944       -3.58043590
 C           -1.27807312        0.29147107       -3.41808919
 C            0.47102646        2.01023922       -3.37022041
 C           -0.91169569        1.62421042       -3.59653526
