   70
C70 / DATE: 7/ 1/2024 / Origin: Program Fullerene / C70 from database
 C            1.14696397       -0.13446713        4.70876919
 C            2.41806713       -0.43300268        4.09092871
 C            2.28196973       -1.70748530        3.39557375
 C            0.29772071       -1.29792682        4.51573028
 C            0.87878139       -2.06056438        3.42932820
 C           -1.05454340       -0.81075708        4.36609710
 C            0.39902415        1.00901694        4.22450171
 C           -0.99200334        0.64408273        4.35856552
 C            0.82305088        1.66010534        3.06300880
 C            2.95210031        0.50594144        3.12758077
 C            2.17279695        1.58151012        2.69216794
 C            2.93120211       -1.56240312        2.10388726
 C            3.64252097       -0.29860284        2.13821972
 C            2.23591218       -1.90108939        0.94590169
 C            0.19146865       -2.16651321        2.22248475
 C            0.91091827       -2.34376757        1.03582777
 C           -1.80619072       -1.19981697        3.18911186
 C           -1.17888940       -1.88613499        2.15834986
 C           -1.91629773        1.10230520        3.35001056
 C           -2.62243066       -0.06178936        2.83922145
 C           -0.12593274        2.19462695        2.16942500
 C           -1.50190649        2.05717330        2.43055158
 C            0.29525550        2.71261599        0.93664955
 C            2.61686580        2.28889135        1.58102584
 C            1.64531580        2.87087680        0.67558299
 C            3.98191655        0.29943107        0.93676241
 C            3.67876477        1.71080244        0.77388167
 C            2.72013358       -1.44195431       -0.28059785
 C            3.60984354       -0.36420300       -0.30345258
 C            2.02035424       -1.75439556       -1.44707079
 C            0.21780377       -2.64504039       -0.13471709
 C            0.89690040       -2.57493156       -1.35101172
 C           -1.79926959       -1.90144385        0.91550149
 C           -1.17694795       -2.58638035       -0.11678190
 C           -3.13625915        0.02557147        1.55067266
 C           -2.81097217       -0.97314923        0.61843888
 C           -2.41670135        2.34673785        1.42197011
 C           -3.38036341        1.31140324        1.08535162
 C           -0.60025518        2.80197113       -0.12427817
 C           -1.94867892        2.89911466        0.16886058
 C           -0.17012877        2.50910358       -1.42862796
 C            2.11334676        2.67789716       -0.68674901
 C            3.35850465        1.93939190       -0.62256545
 C            3.42645475        0.66532665       -1.30983572
 C            1.19445135        2.32335872       -1.67069044
 C            2.15510465       -0.90557457       -2.54910512
 C            2.50945764        0.41707464       -2.31702596
 C            1.59117260        1.41383730       -2.65150707
 C            1.47912911       -1.19558133       -3.72697140
 C            0.25795671       -2.99339799       -2.51375777
 C            0.59627708       -2.34481159       -3.76549710
 C           -1.89326484       -2.80012751       -1.28198571
 C           -1.18028628       -3.16560729       -2.48996960
 C           -3.28368921       -0.87011767       -0.70149411
 C           -2.91493347       -1.83457649       -1.63663356
 C           -3.76738678        1.50072278       -0.29214058
 C           -2.92194060        2.54922464       -0.84176523
 C           -3.69784930        0.36699973       -1.18844182
 C           -1.09657401        2.19679037       -2.43730799
 C           -2.44710334        2.09415002       -2.12833487
 C           -3.13741015        0.85170765       -2.43755068
 C            0.73848369        1.18380079       -3.72249213
 C            0.81070860       -0.10027152       -4.40454222
 C           -0.66376674        1.52939320       -3.57933461
 C           -0.64307573       -1.93801505       -4.41168092
 C           -1.74152194       -2.39296421       -3.58614429
 C           -2.65253207       -1.41801825       -3.00764789
 C           -2.52185516       -0.05560000       -3.29360564
 C           -0.54380054       -0.52564123       -4.71295952
 C           -1.45193780        0.40516664       -4.06566680
