   70
C70 / DATE: 7/ 1/2024 / Origin: Program Fullerene / C70 from database
 C            1.44643463       -0.00335962        4.84121135
 C            0.65622733       -1.20042622        4.60844203
 C            1.52294759       -2.16651574        3.98250173
 C            2.63946447       -0.10497871        4.01947512
 C            2.76901093       -1.48837680        3.63566489
 C            2.54545151        0.89598610        2.97293879
 C            0.67824735        1.12394029        4.35243673
 C            1.45234422        1.78590240        3.32019491
 C           -0.55172752       -0.80330097        3.91221762
 C           -0.63920809        0.64337230        3.98351038
 C           -0.91899239       -1.42774033        2.71926189
 C            1.06465970       -2.83537188        2.78047687
 C           -0.12791329       -2.44530938        2.16158810
 C            3.03358989       -1.79731186        2.24585642
 C            2.24620023       -2.97753532        1.95915486
 C            2.70486945        0.53033446        1.63542849
 C            3.06823835       -0.77935620        1.28672804
 C            2.20064593        1.38238017        0.65325053
 C            0.74107923        2.38096991        2.28820017
 C            1.29510840        2.39171193        1.00948650
 C           -1.28162751        1.30250103        2.94531773
 C           -0.64658440        2.41111867        2.39452646
 C           -1.86037020       -0.78940117        1.91693667
 C           -2.13004721        0.56972179        2.11906794
 C           -2.26872082       -1.40097669        0.74054323
 C           -0.32690045       -2.81860179        0.82350808
 C           -1.39274255       -2.27816248        0.09605313
 C            2.06958022       -3.31077545        0.63491627
 C            0.71193007       -3.45077156        0.14060861
 C            3.01517953       -1.16339023       -0.05753491
 C            2.75240319       -2.50278547       -0.35234786
 C            2.43219439        1.09045792       -0.68817844
 C            2.82259984       -0.19969599       -1.05262084
 C            2.02639004        1.99978180       -1.65912586
 C            0.63527277        3.12192370        0.01730067
 C            1.04644085        3.01086858       -1.30840559
 C           -1.34671500        3.14993566        1.45641519
 C           -0.62143576        3.65432819        0.30424665
 C           -2.89387859        1.26895498        1.18034362
 C           -2.60542733        2.61709914        0.96387555
 C           -3.34953127       -0.85805584        0.06121415
 C           -3.62622230        0.55623328        0.23006457
 C           -3.55329283       -1.19213291       -1.33011324
 C           -1.43682408       -2.43009612       -1.30104137
 C           -2.51206690       -1.91963975       -2.02378721
 C            0.79556784       -3.32351512       -1.30245536
 C            2.13783322       -2.84249864       -1.61646221
 C           -0.28947788       -2.81052084       -2.00065723
 C            2.71716772       -0.61005280       -2.38619689
 C            2.30423412       -1.97311106       -2.67895888
 C            1.71195858        1.53499065       -2.99756803
 C            2.09545361        0.25962446       -3.37275495
 C            0.06338507        3.06739213       -2.38601584
 C            0.36427951        1.98847586       -3.30522686
 C           -1.58784396        3.83133252       -0.76520642
 C           -2.82910721        3.19998374       -0.34644947
 C           -1.26035548        3.34591586       -2.09030015
 C           -3.86042963        1.12495141       -1.09328527
 C           -3.78452253        0.04611456       -2.05730492
 C           -3.28308563        2.34265113       -1.42042857
 C           -2.28658342        2.39370788       -2.48432508
 C           -2.24898130       -1.21331142       -3.26598696
 C           -0.62323309        1.05816136       -3.63476041
 C           -2.78875367        0.12370531       -3.11022112
 C           -1.92909358        1.22231415       -3.15661042
 C           -0.08183111       -2.32768371       -3.29289725
 C            1.25433919       -1.91073173       -3.67592106
 C            1.16797913       -0.54144617       -4.15136672
 C           -1.00709437       -1.36108577       -3.85586939
 C           -0.23808673       -0.16881759       -4.17257915
