   70
C70 / DATE: 7/ 1/2024 / Origin: Program Fullerene / C70 from database
 C            1.26158538       -0.10880389        4.06246528
 C            2.39761079       -0.30523559        3.17847958
 C            2.35010364       -1.67990826        2.70629031
 C            0.39683328       -1.27062984        3.94032852
 C            1.05059193       -2.21977682        3.07436012
 C           -0.91972318       -0.80928478        3.57358065
 C            0.44206847        1.07615251        3.90024823
 C           -0.92479549        0.64335316        3.66315561
 C            0.94540867        2.13736647        3.17019156
 C            2.76633511        0.70669887        2.29809436
 C            2.16306195        1.96095802        2.38855741
 C            3.47293531        0.37225330        1.14882111
 C            2.87551969       -2.00290242        1.45508969
 C            3.53270042       -1.01763456        0.71835514
 C            2.35895071       -3.11653231        0.79226943
 C            0.31549774       -2.87629808        2.09840909
 C            1.05851315       -3.62627163        1.19910986
 C           -1.59487981       -1.41768321        2.51884741
 C           -0.93689332       -2.36051117        1.70808927
 C           -2.71945701       -0.76034719        2.03452278
 C           -1.74899820        1.36029715        2.79676086
 C           -2.82107797        0.67891209        2.22322167
 C            0.03234612        2.95019143        2.39091855
 C           -1.29390595        2.55671455        2.22397781
 C            2.05329492        2.79612476        1.20158493
 C            0.76427781        3.47037854        1.24769128
 C            3.36211251        1.20846871       -0.03690791
 C            2.54921776        2.33706637       -0.01383880
 C            3.46980016       -1.03630110       -0.73649590
 C            3.35185699        0.33747685       -1.20224242
 C            2.41439535       -3.18345328       -0.65900945
 C            2.76636079       -2.04706550       -1.38044383
 C            0.41410338       -4.19487857        0.04167254
 C            1.29632998       -4.00046317       -1.09861899
 C           -1.51018359       -2.74147898        0.47909171
 C           -0.89242392       -3.70124157       -0.32112400
 C           -3.22823632       -1.07311231        0.71639485
 C           -2.56709588       -2.00668449       -0.06313218
 C           -3.51587371        1.23423575        1.07755798
 C           -3.69480144        0.16412625        0.10417870
 C           -2.02848557        3.17046390        1.21044251
 C           -3.19309418        2.50877004        0.64705204
 C            0.07384806        3.72869385        0.06829961
 C           -1.31537227        3.82374242        0.12171042
 C            1.96653390        2.77771718       -1.19690313
 C            0.70958246        3.51132526       -1.15508875
 C            2.52195524        0.63614245       -2.27895827
 C            1.93281837        1.89531215       -2.35397342
 C            2.15313530       -1.77876517       -2.60371638
 C            1.99770518       -0.40112333       -3.04592909
 C            0.48575479       -3.54573370       -2.21115931
 C           -0.89852902       -3.52922202       -1.76313884
 C            0.96192557       -2.51352284       -3.00887031
 C           -2.73008146       -1.94395834       -1.44368046
 C           -1.78894690       -2.62205540       -2.31735497
 C           -3.46409403        0.39240388       -1.25540663
 C           -3.06247876       -0.67085359       -2.05880598
 C           -3.22714734        2.79443963       -0.77345223
 C           -2.09510115        3.64867182       -1.08953963
 C           -3.22760097        1.68764281       -1.71187740
 C           -0.06228757        3.13299122       -2.33243911
 C            0.62821907        2.03488556       -2.98126354
 C           -1.44418384        3.11618302       -2.27032417
 C           -2.15457092        1.91320062       -2.66983734
 C            0.66810908       -0.26208982       -3.62260630
 C            0.02852817       -1.56520168       -3.59593273
 C           -1.32154756       -1.65016579       -3.29564795
 C           -2.08361712       -0.42835685       -3.10654847
 C           -0.06891531        0.89032656       -3.35883813
 C           -1.45552744        0.81386014       -3.16671490
