   70
C70 / DATE: 7/ 1/2024 / Origin: Program Fullerene / C70 from database
 C            1.39263920        0.13908047        5.06008761
 C            0.63055197       -1.04181147        4.69981761
 C            1.54708961       -1.96677910        4.07447984
 C            2.64999995        0.08595280        4.33023384
 C            2.79170674       -1.25512895        3.81510796
 C            2.66091919        1.19366163        3.39160373
 C            0.66181500        1.29559073        4.57943517
 C            1.57655482        2.08249235        3.77967252
 C           -0.53577963       -0.61293607        3.94705092
 C           -0.56630911        0.83770488        3.94949424
 C           -0.88226278       -1.27285832        2.77371174
 C            1.14388445       -2.59015595        2.83092557
 C           -0.12270690       -2.35531624        2.31553016
 C            3.09621295       -1.42528190        2.40895057
 C            2.26062697       -2.50540204        1.91589877
 C            2.89818848        0.96011479        2.03003033
 C            3.28948269       -0.31543378        1.58969419
 C            2.50578733        1.93788638        1.10337972
 C            1.02522950        2.88918865        2.80429781
 C            1.72000382        3.00333954        1.54122521
 C           -1.00417874        1.50186324        2.80297835
 C           -0.37807604        2.69878318        2.46269412
 C           -1.71297544       -0.61317088        1.86736038
 C           -1.67394782        0.78230405        1.80519232
 C           -2.21525580       -1.33315914        0.78300833
 C           -0.36504050       -2.79774091        1.02561012
 C           -1.62272452       -2.56500599        0.49614103
 C            1.99118383       -2.56078583        0.55100622
 C            0.70702851       -2.91893668        0.13444823
 C            3.38105096       -0.56672515        0.22641504
 C            2.76651301       -1.77818823       -0.29887395
 C            2.65691371        1.71976936       -0.27112444
 C            3.13542238        0.49785574       -0.72257165
 C            2.01824410        2.55884292       -1.18570114
 C            0.76532684        3.59657781        0.63108292
 C           -0.55339843        3.23727047        1.12791598
 C            1.00215287        3.49344507       -0.72616508
 C           -2.05334002        1.42334556        0.62165330
 C           -1.44566583        2.63001491        0.25489585
 C           -2.93670001       -0.66061913       -0.20882985
 C           -2.81468814        0.72662466       -0.32014431
 C           -3.51481148       -1.39484856       -1.24520485
 C           -1.92694080       -3.21052153       -0.69080672
 C           -3.06822825       -2.75729695       -1.45161582
 C            0.42279148       -2.94625909       -1.23179904
 C           -0.82688686       -3.42773406       -1.61294468
 C            2.28614620       -1.49242854       -1.64129345
 C            2.56121901       -0.09645655       -1.92278518
 C            1.08137851       -2.03682208       -2.06645340
 C            1.56277026        2.00934684       -2.45664359
 C            1.64868382        0.63583765       -2.67385841
 C           -0.13606372        3.36015286       -1.61771526
 C           -1.37020996        2.97278361       -1.09313430
 C            0.35396493        2.72455470       -2.82856293
 C           -3.14496477        1.36012687       -1.51825137
 C           -2.33756981        2.48288088       -1.95827302
 C           -3.67815830       -0.79082483       -2.55729133
 C           -3.48327081        0.57359761       -2.69383885
 C           -2.74403129       -2.92387146       -2.85677002
 C           -1.31006882       -3.14166530       -2.94821675
 C           -3.04010012       -1.67180223       -3.52294424
 C            0.37443422       -1.38533981       -3.08213235
 C            0.60651810       -0.02694593       -3.33111443
 C           -0.72871639       -2.01705167       -3.65188786
 C           -1.82426348       -1.21904452       -4.17860280
 C           -0.56067489        2.10940250       -3.66659217
 C           -1.96882663        2.24553635       -3.34327170
 C           -2.64516016        1.04241165       -3.78660093
 C           -0.34017498        0.72088214       -4.03289552
 C           -1.64026420        0.14512602       -4.33611835
