   70
C70 / DATE: 7/ 1/2024 / Origin: Program Fullerene / C70 from database
 C            1.58385706       -0.07119322        4.57989685
 C            0.79696916       -1.25550531        4.29444713
 C            1.39675392       -1.93696556        3.15999236
 C            2.67396677       -0.02619181        3.62346502
 C            2.58367340       -1.19396897        2.77255583
 C            2.64784982        1.27134137        2.98328578
 C            0.73699849        1.08418948        4.33592617
 C            1.38758514        1.90868943        3.34320572
 C           -0.58839666       -0.84483891        4.19032884
 C           -0.59773026        0.60444946        4.05676952
 C           -1.41838136       -1.58014869        3.35807227
 C            0.56163606       -2.43828126        2.16410597
 C           -0.81366203       -2.49250450        2.39707764
 C            1.02749004       -2.50151845        0.85015034
 C            2.85249576       -1.03258363        1.42076585
 C            2.23451710       -1.88237746        0.50599975
 C            3.06740095        1.36163810        1.66050156
 C            3.37469084        0.18224802        0.97072274
 C            2.62856458        2.46380983        0.93493975
 C            0.62666263        2.48785188        2.33116438
 C            1.31897678        3.01138492        1.24271650
 C           -1.31955181        1.17025917        3.00978645
 C           -0.72179346        2.13018793        2.17357559
 C           -2.49163617       -0.89153809        2.66394817
 C           -2.45967162        0.49719008        2.56933188
 C           -1.72602819       -2.60644124        1.26900800
 C           -2.81367004       -1.66801473        1.47685178
 C            0.16798824       -2.93873053       -0.15407984
 C           -1.20728075       -2.75383780       -0.00640244
 C            0.69103356       -3.21081263       -1.40898617
 C            2.65710562       -1.86401849       -0.82557339
 C            1.95362288       -2.59912846       -1.78174241
 C            3.79367401        0.26393712       -0.35358481
 C            3.52743744       -0.85669250       -1.24156465
 C            2.80112801        2.49010102       -0.50533517
 C            3.54536998        1.48701371       -1.10343930
 C            0.62733343        3.23404579       -0.01298850
 C            1.52661209        2.87639931       -1.09652761
 C           -1.41745194        2.57106261        1.04362293
 C           -0.70806941        2.89199452       -0.11483103
 C           -3.27227764        1.10339097        1.62250662
 C           -2.77391063        2.28264006        0.94432738
 C           -3.36621909       -1.00788895        0.38336177
 C           -3.88825324        0.26694148        0.60736307
 C           -1.97486156       -2.34067768       -1.09576960
 C           -2.99516572       -1.39855565       -0.91249338
 C           -0.18945236       -3.16072058       -2.55914809
 C           -1.52618592       -2.62053657       -2.38500039
 C            1.81356618       -2.07754148       -3.13690611
 C            0.47025189       -2.37632687       -3.58956653
 C            3.39949405       -0.32142894       -2.58395127
 C            3.22544679        1.11435954       -2.46749852
 C            2.33828727       -0.82812535       -3.42867666
 C            1.03001052        2.17861144       -2.19977467
 C            1.91020760        1.44241744       -2.98890217
 C            1.42025875        0.27473204       -3.69667642
 C           -1.20679968        2.51731079       -1.35984353
 C           -0.34580467        1.95132486       -2.30795615
 C           -3.41785491        2.33886468       -0.35885948
 C           -4.21592445        1.13144590       -0.50710464
 C           -2.58125078        2.45284039       -1.53662013
 C           -3.47193966       -0.69564678       -2.02186183
 C           -4.01864224        0.63468303       -1.84920738
 C           -3.11717944        1.55135888       -2.53206335
 C           -1.72869356       -1.63507971       -3.43294700
 C           -0.40845772       -1.26988811       -3.91576152
 C            0.04976576        0.03547725       -3.73127389
 C           -0.82403855        0.99487741       -3.21695628
 C           -2.65063536       -0.62783778       -3.21471810
 C           -2.19181169        0.74647675       -3.30518119
