   70
C70 / DATE: 7/ 1/2024 / Origin: Program Fullerene / C70 from database
 C            1.35310885       -0.07648780        4.56271101
 C            2.62023930       -0.23867811        3.87618250
 C            2.58959212       -1.51833734        3.19370451
 C            0.49967317       -1.19646169        4.19835594
 C            1.25464958       -2.07130302        3.32697090
 C           -0.75661218       -0.66545124        3.71478648
 C            0.60160892        1.14453152        4.34767823
 C           -0.73345153        0.77477553        3.89188721
 C            1.23832620        2.23067515        3.76060671
 C            3.03171382        0.76917519        2.91214872
 C            2.41239837        2.01017116        2.92037064
 C            3.10879540       -1.32347439        1.85188171
 C            3.26032332        0.10392195        1.63749241
 C            2.55437944       -2.06768575        0.82362984
 C            0.65112952       -2.56699544        2.17784355
 C            1.48027058       -2.90946971        1.11854053
 C           -1.30041195       -1.17786368        2.54569877
 C           -0.68584811       -2.25895179        1.89882632
 C           -2.23301124       -0.40877338        1.85951363
 C           -1.39367376        1.57781967        2.96128013
 C           -2.24024545        0.98201261        2.01922253
 C            0.41987392        3.22894967        3.10360429
 C           -0.94410293        2.88251152        2.74804445
 C            2.16650479        2.66998541        1.65305438
 C            1.09583288        3.61634100        1.87575501
 C            2.76632164        0.66003590        0.45240012
 C            2.16860424        1.92236556        0.47721661
 C            2.65677070       -1.56157574       -0.46680129
 C            2.56051452       -0.17860032       -0.65137878
 C            2.36387527       -2.42159963       -1.51308782
 C            0.93310697       -3.66132325        0.09188615
 C            1.56395875       -3.59325307       -1.21197175
 C           -1.26906049       -2.78625221        0.73678509
 C           -0.50526571       -3.59288209       -0.10747373
 C           -2.95326291       -1.00155492        0.83147053
 C           -2.44456613       -2.22610745        0.24144026
 C           -3.50514492       -0.18363249       -0.23385637
 C           -2.86089224        1.78622251        1.06320455
 C           -3.40754081        1.19104866       -0.14551426
 C           -1.20956775        3.52949069        1.47614536
 C            0.08227757        3.75675778        0.85232845
 C           -2.23875977        3.04164219        0.68574035
 C            1.38007347        2.32789485       -0.59955034
 C            0.30562139        3.20996557       -0.40412410
 C            1.97357562        0.33561835       -1.81686247
 C            1.48882039        1.65161541       -1.81220692
 C            1.89646613       -1.88195446       -2.77151667
 C            1.76684622       -0.50426275       -2.92526606
 C            0.52339591       -3.69570844       -2.21525188
 C           -0.75695902       -3.57376971       -1.54341120
 C            0.83923782       -2.75668091       -3.26815513
 C           -2.65466267       -2.14728379       -1.19797336
 C           -3.20761667       -0.83497013       -1.49482219
 C           -1.71761543       -2.70702355       -2.06260354
 C           -2.69018040       -0.10576181       -2.56218537
 C           -2.89868715        1.94113502       -1.28148930
 C           -2.05244630        3.00290925       -0.75708104
 C           -0.77248143        3.16535646       -1.28428922
 C           -2.49431242        1.28113215       -2.44117348
 C            0.73370137        2.12549361       -2.87836215
 C           -0.54123604        2.74621773       -2.58511506
 C           -1.54998661        1.93135970       -3.23581276
 C            1.05696375       -0.04757878       -4.03381708
 C            0.54667434        1.30197949       -4.05086900
 C           -0.88574179        1.23002514       -4.31298076
 C           -0.21280992       -2.18408189       -3.96199184
 C           -1.52560790       -2.13068173       -3.32345456
 C           -2.09866199       -0.82093108       -3.60285964
 C            0.01962294       -0.89861963       -4.58909928
 C           -1.22442553       -0.15311318       -4.54599950
