   70
C70 / DATE: 7/ 1/2024 / Origin: Program Fullerene / C70 from database
 C            1.37416148       -0.22765355        5.65420555
 C            0.54223758       -1.39599179        5.46394977
 C            1.16888815       -2.21832772        4.44242553
 C            2.50220334       -0.34147096        4.74386242
 C            2.25149812       -1.46341136        3.85570225
 C            2.68862370        0.96227833        4.15899271
 C            0.60408596        0.92961112        5.22941850
 C            1.50298501        1.75838324        4.46761001
 C           -0.72880268       -0.94560080        4.92129137
 C           -0.60729387        0.45311852        4.58208890
 C            0.11754436       -2.64974352        3.55955360
 C           -1.06512868       -1.85142014        3.85636645
 C            0.40924145       -2.83971784        2.21513558
 C            2.24701270       -1.26781576        2.46889160
 C            1.47798810       -2.11961847        1.65209275
 C            2.88592455        1.05095387        2.72654017
 C            2.77682248       -0.08596495        1.92835589
 C            1.03370678        2.29923963        3.21131449
 C            2.15817919        2.22225977        2.30632944
 C           -0.90035655        0.84980060        3.26965291
 C           -0.21991891        1.93917270        2.70819293
 C           -1.76900934       -1.36586272        2.76340383
 C           -1.65232941       -0.00157882        2.43776277
 C           -0.70179684       -3.06329201        1.42419961
 C           -1.88051378       -2.26798093        1.72298486
 C           -0.55419687       -3.09214745       -0.00722078
 C            1.55664662       -1.97334697        0.25454587
 C            0.60548449       -2.59221881       -0.57644497
 C            2.67735085        0.12178737        0.55372663
 C            2.36296962       -0.95701694       -0.26186755
 C            1.86719098        2.33805173        0.96497604
 C            2.43199599        1.42030094        0.08507785
 C           -0.46664962        2.27982388        1.37795965
 C            0.60427724        2.79979417        0.64972578
 C           -1.99657146        0.43303372        1.14296072
 C           -1.51063177        1.66019886        0.68471511
 C           -2.43138374       -1.82998123        0.46994711
 C           -1.82018775       -2.65563521       -0.55018127
 C           -2.55441571       -0.46922048        0.22473041
 C           -1.82736838       -2.16384826       -1.83542325
 C            0.56803632       -2.29298867       -1.94281343
 C           -0.67131121       -2.29562450       -2.59923114
 C            2.45534340       -0.78324090       -1.63574362
 C            1.63126829       -1.59766872       -2.50222537
 C            2.20048741        1.62256938       -1.27902058
 C            2.42927310        0.57164670       -2.16054667
 C            0.39851127        3.16520934       -0.66178473
 C            1.33214814        2.65092297       -1.65132901
 C           -1.77195169        2.06259578       -0.63095597
 C           -0.92336835        3.00077037       -1.21318161
 C           -2.74273773       -0.08287130       -1.10537926
 C           -2.65020618       -1.07710218       -2.08802321
 C           -2.54641323        1.25134925       -1.46237475
 C           -2.89580997       -0.76529083       -3.41571515
 C           -0.74902527       -1.92105441       -3.94008661
 C           -2.00295261       -1.34361497       -4.40756200
 C            1.43606442       -0.85564011       -3.73579614
 C            1.75540449        0.53712958       -3.45250794
 C            0.33362659       -1.14390671       -4.52359867
 C            0.61576834        2.59023147       -2.91505911
 C           -0.75471611        3.01714069       -2.65079544
 C            0.85141017        1.54257549       -3.80335604
 C           -2.74515860        1.63389428       -2.79416934
 C           -3.11543031        0.62013882       -3.76566396
 C           -1.77025086        2.50624246       -3.43326902
 C           -1.68823948       -0.32033426       -5.38458988
 C           -0.26260624       -0.06195414       -5.28598216
 C           -0.08265126        1.29815488       -4.81018873
 C           -2.39374922        0.89003155       -4.99900479
 C           -1.40122695        1.90174689       -4.69759688
