   70
C70 / DATE: 7/ 1/2024 / Origin: Program Fullerene / C70 from database
 C            1.54476756       -0.01763281        5.06452144
 C            0.76845296       -1.24308835        5.02694540
 C            1.66148742       -2.28736169        4.57870173
 C            2.71561468       -0.22410362        4.22769748
 C            2.82247758       -1.64058884        3.97462750
 C            2.60481472        0.67167748        3.09504589
 C            0.74607574        1.02412250        4.44617435
 C            1.51930021        1.59572516        3.36644909
 C           -0.44347441       -0.97689561        4.26403620
 C           -0.54299764        0.46417078        4.10484191
 C           -0.79815242       -1.80158490        3.18830930
 C            1.15808640       -3.24484266        3.61971144
 C           -0.13539672       -3.00973933        2.99315469
 C            2.90581733       -2.09771306        2.59953002
 C            2.13303461       -3.31407399        2.54691331
 C            2.73983222        0.18898245        1.79275765
 C            2.77917977       -1.19081029        1.54021152
 C            2.35117343        1.03655154        0.76297973
 C            0.82597496        2.09297794        2.27217112
 C            1.47515322        2.08939252        1.04893158
 C           -1.16361090        0.94193411        2.96288354
 C           -0.56352245        1.98745794        2.25333147
 C           -1.56993544       -1.26482235        2.14911765
 C           -1.97694857        0.06540507        2.26017749
 C           -1.63521437       -1.90815317        0.89755753
 C           -0.02042999       -3.52713966        1.64940755
 C            1.40037572       -3.57222221        1.33641288
 C           -0.86882992       -3.05553808        0.65310562
 C            2.39479756       -1.67084352        0.27144615
 C            1.79869246       -2.94021865        0.17044069
 C            2.46903754        0.59389856       -0.54723775
 C            2.30263300       -0.76744781       -0.80569334
 C            2.27297600        1.52320347       -1.55898450
 C            0.87183909        2.76556330       -0.00329154
 C            1.49520713        2.70673529       -1.24423696
 C           -1.23932456        2.48181644        1.13568782
 C           -0.49979457        3.03228951        0.08033761
 C           -2.79735072        0.61158299        1.29085392
 C           -2.50675370        1.96693631        0.86982348
 C           -2.30131877       -1.27769186       -0.16900221
 C           -3.06821398       -0.15236732        0.09118887
 C           -1.98809612       -1.59714771       -1.49611933
 C           -0.44508398       -3.29369587       -0.64747909
 C            0.98209361       -3.19521835       -0.91240448
 C           -1.12553711       -2.65705608       -1.75158742
 C            1.76699349       -1.18429560       -2.03713000
 C            1.13915893       -2.42032208       -2.11388479
 C           -0.13229639       -2.51481212       -2.79952595
 C            1.87600063        1.07420398       -2.87595972
 C            1.51330193       -0.25604297       -3.05480184
 C            0.78258453        3.11444462       -2.43857666
 C            1.08737674        2.14159593       -3.48087024
 C           -1.17908384        3.53716396       -1.03043972
 C           -0.49819902        3.63475867       -2.31213130
 C           -3.08473669        2.13557400       -0.44589459
 C           -3.33178089        0.79891812       -0.97469888
 C           -2.54228211        3.09455654       -1.28501580
 C           -2.26498181       -0.69641318       -2.53752434
 C           -2.94454231        0.50384249       -2.27847569
 C           -0.38567222       -1.61181500       -3.80737094
 C            0.61432497       -0.59447427       -4.07046287
 C           -1.64969911       -0.90828754       -3.77620777
 C            0.14657993        1.83758731       -4.45797585
 C           -0.06791511        0.45061724       -4.81836180
 C           -1.49729567        0.18422710       -4.71377661
 C           -1.47855046        3.39627607       -3.35514085
 C           -2.68498726        2.90180624       -2.71389732
 C           -2.91426534        1.55466132       -3.20171272
 C           -1.15575121        2.48216105       -4.43560856
 C           -2.16319027        1.43164254       -4.43400220
