   70
C70 / DATE: 7/ 1/2024 / Origin: Program Fullerene / C70 from database
 C            1.50654368       -0.11403919        5.16735515
 C            0.64477012       -1.27602874        5.21839002
 C            1.17885513       -2.25775801        4.29067289
 C            2.54326216       -0.37394367        4.18056266
 C            2.25894004       -1.64156027        3.54974578
 C            2.62485629        0.78965570        3.33352883
 C            0.71289690        0.99544396        4.66958188
 C            1.51295486        1.66552460        3.67763191
 C           -0.66019431       -0.87885579        4.71546793
 C           -0.57319600        0.48639496        4.24637790
 C            0.06221223       -2.77003725        3.52925965
 C           -1.07060804       -1.88348958        3.76810849
 C            0.28161472       -3.16959461        2.21441477
 C            2.20724089       -1.70512535        2.15927118
 C            1.43983057       -2.71352546        1.56818893
 C            2.90447131        0.62555904        1.97863384
 C            2.63893545       -0.61614332        1.37828506
 C            2.76201672        1.77087953        1.20740119
 C            0.87128961        2.28613216        2.61920558
 C            1.71341497        2.69459786        1.60174391
 C           -1.00593217        0.78188616        2.95147711
 C           -0.41942809        1.85357555        2.26401994
 C           -1.81381681       -1.49762387        2.66090596
 C           -1.77285837       -0.15437261        2.24112543
 C           -0.86344703       -3.36956159        1.45246300
 C           -1.98395538       -2.48170395        1.70085472
 C           -0.75565544       -3.56557172        0.01934255
 C            1.60281970       -2.95038323        0.20815697
 C            0.48413847       -3.45045609       -0.57670601
 C            2.57384515       -0.71675416       -0.02160093
 C            2.28911487       -1.95038614       -0.58937369
 C            2.72202621        1.66848559       -0.23668067
 C            2.50243458        0.43230857       -0.81874413
 C            1.13263559        3.23485145        0.40521855
 C            1.95855128        2.80491885       -0.70807063
 C           -0.94377711        2.23363444        1.02114830
 C           -0.24326682        3.17448452        0.25638861
 C           -2.24846133        0.18408237        0.96495799
 C           -1.90961404        1.42511906        0.40391360
 C           -2.56101460       -2.13149845        0.43111123
 C           -1.89924316       -2.91776254       -0.59813499
 C           -2.84292127       -0.80278920        0.16671700
 C           -1.79527732       -2.36826007       -1.87464927
 C            0.57296614       -2.86686018       -1.89981889
 C            1.74504218       -2.00794814       -1.93040604
 C           -0.57717660       -2.44553837       -2.56904908
 C            1.92142017        0.38273198       -2.09503164
 C            1.68519503       -0.85845144       -2.70466396
 C            1.35160147        2.74216883       -1.95102806
 C            1.49568234        1.57688666       -2.71272503
 C           -0.73529909        3.54313839       -0.98582776
 C            0.19439860        3.50257936       -2.10024467
 C           -2.42986426        1.79535028       -0.84332869
 C           -1.96543959        2.95157241       -1.45962410
 C           -3.20491489       -0.50352827       -1.13652934
 C           -2.71557731       -1.37098091       -2.19854911
 C           -3.11817937        0.85834980       -1.60592713
 C           -2.53937795       -0.56515857       -3.38936581
 C           -2.92007266        0.80115260       -3.04829136
 C           -0.38221437       -1.66811678       -3.71087401
 C            0.86270151       -0.92420228       -3.82210885
 C           -1.44254981       -0.80704930       -4.20143908
 C            0.94101392        1.54538301       -3.99450881
 C            0.60490427        0.27171214       -4.58712360
 C           -0.81458442        0.29307480       -4.91129179
 C           -0.58466715        3.39379453       -3.31284507
 C           -1.93836090        3.03356347       -2.91587893
 C           -2.33284405        1.87808622       -3.69929975
 C           -0.14615808        2.45380455       -4.32130359
 C           -1.29464933        1.64417566       -4.69058406
