   70
C70 / DATE: 7/ 1/2024 / Origin: Program Fullerene / C70 from database
 C            1.50782691        0.08085824        4.83128603
 C            0.70564025       -1.12573893        4.74283121
 C            1.41407547       -2.07808030        3.90454838
 C            2.68769931       -0.11487451        4.00912571
 C            2.71789153       -1.50205537        3.59320757
 C            2.69539514        0.90977359        2.98199582
 C            0.73590823        1.16386870        4.24692758
 C            1.48485688        1.69950131        3.13308894
 C           -0.63535106       -0.73438439        4.36196414
 C           -0.59923297        0.67327992        3.98891522
 C           -1.36942242       -1.60291381        3.56997942
 C            0.70965555       -2.78013107        2.92091361
 C           -0.67971585       -2.66949454        2.85159070
 C            1.39787228       -3.30490076        1.82870665
 C            3.30855360       -1.80256616        2.37578699
 C            2.77767908       -2.91375298        1.61215097
 C            3.10457053        0.57158968        1.69401400
 C            3.58088299       -0.71976416        1.43692700
 C            2.64249656        1.33898483        0.62396556
 C            0.80214386        2.06746649        1.98170235
 C            1.52605809        2.16247983        0.80596045
 C           -1.24688743        1.06900389        2.82096792
 C           -0.58122060        1.89040342        1.89442991
 C           -2.35827188       -1.04536747        2.66655208
 C           -2.34447706        0.32125597        2.40088910
 C           -1.34787796       -2.84255408        1.56826680
 C           -2.50712139       -1.96822067        1.55475452
 C            0.74527982       -3.36290161        0.52692320
 C           -0.58750647       -2.98025656        0.41178358
 C            2.94117588       -2.60878283        0.20174626
 C            3.46434457       -1.26403023        0.08978037
 C            1.69639671       -2.91045250       -0.47305061
 C            2.95589024        0.92316539       -0.66624201
 C            2.96793743       -0.44184866       -0.91287606
 C            2.63417245        1.76296482       -1.71799853
 C            0.91288274        2.71575443       -0.30986853
 C            1.69228436        2.82968214       -1.45109432
 C           -1.23130892        2.24472284        0.70349166
 C           -0.48178933        2.62032169       -0.42195684
 C           -3.08075371        0.77394337        1.31779707
 C           -2.56326629        1.88582241        0.54523857
 C           -2.95994021       -1.46277709        0.34382957
 C           -3.56171795       -0.20832885        0.36404378
 C           -1.03053578       -2.37516286       -0.76720500
 C           -2.33918130       -1.88783863       -0.83176950
 C            1.25301343       -2.04538198       -1.46361317
 C            2.04438162       -0.95754699       -1.83198099
 C           -0.10283715       -2.00528468       -1.75014101
 C            2.18011142        1.14696008       -2.94410775
 C            1.59837232       -0.11902016       -2.85835841
 C            1.07131432        3.17825448       -2.70830990
 C            1.52588400        2.20198165       -3.69003363
 C           -1.10584345        2.74448390       -1.67949244
 C           -0.37100450        3.20391226       -2.77524229
 C           -3.12459692        1.77783970       -0.78779895
 C           -3.79205173        0.48387861       -0.88537446
 C           -2.40231700        2.24674448       -1.87883501
 C           -2.82211665       -1.42113282       -2.05161753
 C           -3.67100257       -0.23763599       -2.06178894
 C           -0.52616363       -1.29293332       -2.86627408
 C            0.33762698       -0.34424210       -3.43648327
 C           -1.88879222       -1.28298489       -3.15256582
 C            0.39190693        1.86070700       -4.51443251
 C           -0.70017614        2.72861935       -4.10496254
 C           -0.11779230        0.50669692       -4.45053313
 C           -2.80296352        1.81911061       -3.14796177
 C           -3.38099647        0.49668784       -3.27724245
 C           -2.44053167       -0.29330880       -4.05265677
 C           -1.91860348        1.97470342       -4.28245813
 C           -1.53881347        0.63122751       -4.70175632
