   70
C70 / DATE: 7/ 1/2024 / Origin: Program Fullerene / C70 from database
 C            1.62533903       -0.04486891        4.72339703
 C            0.81553229       -1.22844659        4.51290816
 C            1.42188950       -2.01519986        3.45054264
 C            2.72021130       -0.08841718        3.77420703
 C            2.56809330       -1.27917836        2.95177854
 C            2.77223130        1.19847712        3.10836105
 C            0.80762453        1.10819174        4.39006098
 C            1.50717164        1.86975785        3.36754872
 C           -0.56050572       -0.79978414        4.34463675
 C           -0.53442747        0.63347453        4.09696508
 C           -1.38420966       -1.59234353        3.56236130
 C            0.58298698       -2.64277084        2.54125298
 C           -0.78049497       -2.68938000        2.82807050
 C            0.99765309       -2.77648394        1.21561504
 C            2.76356997       -1.16245723        1.57671743
 C            1.95173890       -1.89044748        0.69600620
 C            3.27340763        1.22792012        1.81995448
 C            3.43128887       -0.03454522        1.11281909
 C            2.69413502        2.15781244        0.86959518
 C            0.76933762        2.37223956        2.29563729
 C            1.40325040        2.61876964        1.07101147
 C           -1.18225700        1.14778824        2.97693421
 C           -0.61949800        2.24769364        2.32946045
 C           -2.31445686       -0.95567461        2.64658501
 C           -2.13276032        0.37451746        2.30131322
 C           -1.70919521       -3.04831803        1.77709666
 C           -2.60688215       -1.91156548        1.59517616
 C            0.20692308       -3.52612383        0.35026650
 C           -1.20952761       -3.68480145        0.65434930
 C            0.33460177       -3.32915815       -1.07976421
 C            2.00344222       -1.63508760       -0.68828643
 C            1.10668728       -2.27761671       -1.55213200
 C            3.41044413        0.27014900       -0.29774056
 C            3.05564376        1.67490837       -0.44047905
 C            2.85236791       -0.63649378       -1.18758044
 C            2.28959402        2.03208810       -1.54004921
 C            0.63869582        3.00573929       -0.03282750
 C            1.03288639        2.63316975       -1.33597540
 C           -1.36412442        2.88490197        1.35067681
 C           -0.66054599        3.43831650        0.21212562
 C           -2.63791815        0.83128061        1.08603561
 C           -2.52236059        2.19004127        0.82584402
 C           -2.87621810       -1.45310983        0.30451621
 C           -2.83813195       -0.07831079        0.03185113
 C           -1.94121053       -3.53400688       -0.58414054
 C           -0.97280907       -3.53182517       -1.66307636
 C           -2.78319775       -2.36099233       -0.74532119
 C           -1.42731777       -2.57498020       -2.64562119
 C           -2.57912129       -1.87489146       -2.09238832
 C            0.81138780       -1.71972017       -2.80150671
 C           -0.48743970       -1.81893852       -3.33083716
 C            2.67219854       -0.17570925       -2.48853661
 C            2.49172974        1.25603097       -2.67251577
 C            1.72913390       -0.83976484       -3.36279250
 C            1.65616469        1.45824426       -3.82657492
 C            1.29142941        0.14566753       -4.33676380
 C            0.14225527        2.78596780       -2.42083229
 C            0.44372520        2.22491651       -3.66164748
 C           -1.61239890        3.51514965       -0.87007721
 C           -2.75698834        2.68870767       -0.50758043
 C           -1.19127784        3.11324731       -2.18849655
 C           -2.92124717        0.37234443       -1.29976744
 C           -2.71164718       -0.51723054       -2.36021117
 C           -2.96367031        1.73753594       -1.57588821
 C           -2.23248858        2.24765519       -2.71917415
 C           -1.00022378       -0.76796659       -4.08305293
 C           -0.10721904        0.19063234       -4.69457409
 C           -0.60573413        1.51917844       -4.37799228
 C           -2.14298885       -0.04891290       -3.54718278
 C           -1.90427789        1.37300716       -3.74029096
