   70
C70 / DATE: 7/ 1/2024 / Origin: Program Fullerene / C70 from database
 C            1.06466529        0.28663468        5.68326176
 C            0.34136233       -0.94307010        5.42485476
 C            1.26206893       -1.87958229        4.80700589
 C            2.37292396        0.16801977        5.05788318
 C            2.47414585       -1.15257753        4.46984002
 C            2.54724251        1.31799392        4.20085581
 C            0.35232944        1.36627877        5.01711206
 C            1.32067554        2.10645273        4.24990102
 C           -0.87586914       -0.60001477        4.71122462
 C           -0.78632512        0.79737604        4.31912399
 C           -1.37790553       -1.50065348        3.78853699
 C            0.82719887       -2.58545213        3.61493966
 C           -0.51829407       -2.57110900        3.28352824
 C            2.68126258       -1.28534379        3.03374133
 C            1.79916798       -2.33600958        2.56136493
 C            2.86533610        1.11911866        2.79612300
 C            2.86761252       -0.15979486        2.23086331
 C            0.98980869        2.45376243        2.88364824
 C            2.16599912        2.17119392        2.09218361
 C           -1.04836660        1.15254593        2.98706384
 C           -0.24915458        2.10616925        2.33909249
 C           -2.10942967       -0.97958645        2.65051836
 C           -1.88439866        0.32762552        2.22446073
 C           -0.88409857       -2.78659042        1.89832871
 C           -2.09662588       -2.03009560        1.66378464
 C            1.37401826       -2.29815703        1.23389623
 C            0.09882031       -2.76466213        0.90598453
 C            2.61871288       -0.26782658        0.85849661
 C            2.01250868       -1.42452928        0.35593759
 C            1.97024728        2.02000334        0.73647479
 C            2.51944438        0.90778141        0.11417255
 C           -0.38447551        2.26778413        0.95761571
 C            0.77670327        2.49224118        0.21615696
 C           -2.14135813        0.63772933        0.88333168
 C           -1.49380238        1.72745701        0.30528040
 C           -2.36302304       -1.69377800        0.35671730
 C           -2.65195843       -0.36451231        0.05040042
 C           -0.34052213       -2.64522041       -0.41589282
 C           -1.70388659       -2.43141714       -0.60858048
 C            1.67918666       -1.46653673       -0.99704765
 C            0.54726965       -2.18628076       -1.39496594
 C            2.32820862        0.81489496       -1.26009035
 C            2.15780195       -0.44971507       -1.81837845
 C            0.68333788        2.52953018       -1.16301904
 C            1.69354464        1.89095328       -1.87689676
 C           -1.62598052        1.94701308       -1.06978407
 C           -0.58005370        2.59740263       -1.72929371
 C           -2.92492520       -0.07482327       -1.28823508
 C           -2.51779604        1.15973315       -1.80617126
 C           -2.18555985       -2.31177925       -1.89343602
 C           -3.03847226       -1.17125728       -2.14808833
 C            0.09685409       -2.09006869       -2.71993129
 C           -1.24429383       -2.35808913       -2.98908887
 C            1.94014615       -0.54241778       -3.18859302
 C            0.86115548       -1.39265871       -3.65694424
 C            1.65338932        1.92692222       -3.26301677
 C            1.90596771        0.68582908       -3.96803116
 C           -0.66028331        2.83883793       -3.09546359
 C            0.52206982        2.58013288       -3.90035658
 C           -2.72142383        1.44686048       -3.15979653
 C           -1.80936366        2.35426733       -3.82944671
 C           -3.05085827       -0.98129211       -3.58123877
 C           -1.90867950       -1.71639125       -4.11339428
 C           -2.99318954        0.36672179       -4.09189130
 C            0.22011650       -0.72347738       -4.78670382
 C            0.89736210        0.54407272       -5.00310384
 C            0.12374161        1.77391964       -5.04032010
 C           -1.32462204        1.69763149       -5.03756765
 C           -1.15774380       -0.81207435       -4.95684386
 C           -1.95966758        0.39595379       -5.11209360
