   70
C70 / DATE: 7/ 1/2024 / Origin: Program Fullerene / C70 from database
 C            1.41234736       -0.06015460        5.15262869
 C            0.62367323       -1.21795848        4.76729660
 C            1.48615972       -2.08202253        4.00063331
 C            2.61002000       -0.05404190        4.32810368
 C            2.70704691       -1.34384412        3.69336917
 C            2.56123701        1.11953897        3.48374181
 C            0.64063163        1.12304828        4.82009976
 C            1.41631018        1.92052861        3.88965329
 C           -0.59969896       -0.73913083        4.14887581
 C           -0.67632710        0.69094187        4.40720086
 C           -0.99574105       -1.23222951        2.89825887
 C            0.99045584       -2.60796608        2.74846909
 C           -0.29433144       -2.28856429        2.29735004
 C            2.89075088       -1.39872671        2.25293670
 C            2.07786562       -2.50134381        1.79992787
 C            2.85412948        1.02514337        2.12315781
 C            2.89184295       -0.22974077        1.48992786
 C            2.57977989        2.15128376        1.36431564
 C            0.74862846        2.65252641        2.90958697
 C            1.46810782        3.00033187        1.77030640
 C           -1.35402636        1.48340762        3.49978482
 C           -0.64516597        2.57326707        2.83423740
 C           -1.90516687       -0.48900766        2.14067110
 C           -2.16370306        0.83600085        2.48976262
 C           -2.27651703       -0.92360099        0.86806745
 C           -0.58647823       -2.63539090        0.97375894
 C           -1.69974931       -2.07901435        0.33740333
 C            1.72651911       -2.55187314        0.46949138
 C            0.47854856       -3.07548749        0.18892826
 C            2.60788786       -0.34122613        0.11607681
 C            2.21971318       -1.58303671       -0.40408731
 C            2.55274165        2.05576849       -0.07769327
 C            2.50274468        0.80212800       -0.67820597
 C            0.77205070        3.40873424        0.56242199
 C            1.66050824        3.10144237       -0.54414576
 C           -1.32409431        2.80935886        1.56465008
 C           -2.36686250        1.80814108        1.43570724
 C           -0.59300226        3.16107426        0.43391867
 C           -2.91695205       -0.02184496        0.01725707
 C           -2.67432387        1.34035455        0.17263687
 C           -3.41383329       -0.47063573       -1.19587460
 C           -1.98145827       -2.45030635       -0.98587394
 C           -2.92268123       -1.72885032       -1.72223272
 C            0.24781146       -3.42695505       -1.12253226
 C           -1.08980376       -3.28790830       -1.65108440
 C            1.85256585       -1.70079447       -1.75038157
 C            1.13925628       -2.85144092       -2.10707049
 C            2.01586609        0.70252856       -1.98341376
 C            1.76176457       -0.55013811       -2.54559520
 C            1.12142441        2.98029391       -1.80853628
 C            1.52952226        1.84966011       -2.61565942
 C           -1.12298021        2.88315827       -0.83142769
 C           -2.26760882        2.08420881       -0.93199376
 C           -0.31810357        3.07758273       -1.95420824
 C           -3.49646963        0.47623565       -2.29474535
 C           -2.75871386        1.72275058       -2.18359411
 C           -2.77405146       -1.57921090       -3.16725620
 C           -3.06793563       -0.19769795       -3.50649507
 C           -0.94791740       -3.19894819       -3.09570575
 C            0.45796444       -2.93972476       -3.38036832
 C           -1.73656253       -2.22717658       -3.82356115
 C            1.20167957       -0.61234240       -3.82760415
 C            0.53473441       -1.81694850       -4.28015226
 C           -0.82368685       -1.45465057       -4.65435760
 C            0.53734612        1.72443162       -3.66640901
 C           -0.65492997        2.42864943       -3.21162425
 C           -1.90125262        1.83639780       -3.35097382
 C           -2.03835642        0.61617481       -4.13189498
 C            0.41487531        0.50672266       -4.31334891
 C           -0.90602583       -0.00188039       -4.65250669
