   70
C70 / DATE: 7/ 1/2024 / Origin: Program Fullerene / C70 from database
 C            1.29815968        0.04738905        4.73710990
 C            2.53047510       -0.09370249        3.99092915
 C            2.53266566       -1.41688624        3.39419728
 C            0.45976134       -1.10428127        4.43506364
 C            1.20710260       -1.98265178        3.55914476
 C           -0.82592779       -0.61494711        3.98319819
 C            0.50141105        1.23794398        4.53397429
 C           -0.85386789        0.81508737        4.21811646
 C            0.90060077        2.19881599        3.51894895
 C            2.83919046        0.86002189        2.93832556
 C            2.05100196        1.99593087        2.74961811
 C            3.05763254       -1.29932580        2.04374187
 C            3.28502398        0.10884439        1.77278928
 C            2.48474668       -2.06928470        1.04460713
 C            0.58743706       -2.50528351        2.43055383
 C            1.40059584       -2.88588155        1.37222113
 C           -1.34520207       -1.09449349        2.78687060
 C           -0.74989679       -2.19494976        2.15905008
 C           -2.20477946       -0.27769254        2.05700255
 C           -1.35028511        1.67672730        3.15864097
 C           -0.31857679        2.65293280        2.86790755
 C           -2.03471158        1.10775989        2.09032322
 C           -0.24129820        3.16065454        1.57941668
 C            2.15780431        2.66598380        1.53555733
 C            1.01816117        3.41804872        1.04459049
 C            3.01488538        0.61517264        0.50044119
 C            2.73326594        1.97034772        0.39235646
 C            2.61632756       -1.63298942       -0.26910476
 C            2.62594057       -0.25914090       -0.52462589
 C            2.28668087       -2.52162404       -1.28075239
 C            0.83505712       -3.66493611        0.37702139
 C            1.46026599       -3.66078985       -0.93083870
 C           -1.34307386       -2.72404925        1.00369672
 C           -0.60262172       -3.57646197        0.18372954
 C           -2.92115726       -0.84225640        1.01617427
 C           -2.48976846       -2.12368020        0.48732153
 C           -3.32428957       -0.00701579       -0.09915155
 C           -2.14498236        1.83774726        0.90432743
 C           -1.30900866        2.94895335        0.70722331
 C           -2.91576675        1.32010842       -0.14602121
 C           -1.25785288        3.56983235       -0.53510913
 C            1.17101010        3.52695651       -0.39590972
 C            2.09289050        2.47944214       -0.80406374
 C            0.03998210        3.74449065       -1.16434286
 C            2.03544661        0.23821971       -1.69974888
 C            1.71182899        1.59745314       -1.80861954
 C            1.81757095       -2.01157812       -2.55259364
 C            1.71811962       -0.63515634       -2.74770744
 C            0.41173224       -3.77688831       -1.92404793
 C           -0.86194393       -3.60459098       -1.25022900
 C            0.73955407       -2.88208444       -3.01172155
 C           -2.71556888       -2.11168277       -0.95163869
 C           -3.26213547       -0.81099844       -1.30961276
 C           -1.80469464       -2.73650613       -1.79707893
 C           -2.89323792       -0.21155969       -2.51121507
 C           -2.96470056        1.97162111       -1.37261881
 C           -2.19594073        3.17978899       -1.56496538
 C           -2.87426538        1.18436727       -2.59470975
 C           -0.04148489        3.11548403       -2.46817918
 C            0.77710898        2.02370974       -2.75623382
 C           -1.45012186        3.03842195       -2.80381194
 C           -1.92731523        1.85067018       -3.48248413
 C            0.95538188       -0.17548581       -3.81879028
 C            0.40226049        1.16352653       -3.78187282
 C           -1.00312088        1.08052421       -4.16936266
 C           -0.30554320       -2.31695212       -3.72165324
 C           -1.62123997       -2.24248201       -3.09121862
 C           -2.22516052       -0.97213699       -3.47038317
 C           -0.06356524       -1.04800685       -4.37452592
 C           -1.31397362       -0.31454532       -4.38924775
