   70
C70 / DATE: 7/ 1/2024 / Origin: Program Fullerene / C70 from database
 C            1.32950302       -0.03249037        4.27121775
 C            2.58443136       -0.28856063        3.60733051
 C            2.54034102       -1.63917311        3.07388981
 C            0.47438675       -1.19481958        4.08724243
 C            1.21461633       -2.17758779        3.31817407
 C           -0.80504909       -0.73607752        3.57121556
 C            0.57115721        1.13162939        3.87110657
 C           -0.79536499        0.70879604        3.60669681
 C            1.13836251        2.09419506        3.03539947
 C            2.98786175        0.59708939        2.53411094
 C            2.30985456        1.79634331        2.31340363
 C            3.02196752       -1.59980170        1.70272777
 C            3.34647936       -0.22211689        1.38462001
 C            2.36409781       -2.36163874        0.74960319
 C            0.57083013       -2.81815782        2.26762433
 C            1.33398012       -3.20376693        1.16899095
 C           -1.34121664       -1.37857886        2.46661407
 C           -0.79457166       -2.60031197        2.08209034
 C           -2.12496438       -0.65942396        1.55877591
 C           -1.52543401        1.42790994        2.66972229
 C           -2.17022984        0.74750866        1.62120091
 C            0.27040271        3.07977118        2.56950756
 C           -1.14450557        2.75374487        2.49138010
 C            0.60362169        3.86411536        1.39481712
 C            2.56902633        2.44403531        1.10714519
 C            1.69348102        3.49638027        0.62846432
 C            3.08745699        0.27073855        0.10632583
 C            2.98608209        1.64711681       -0.03713096
 C            2.38920317       -1.93477161       -0.57570323
 C            2.51401723       -0.57058859       -0.85682129
 C            1.92295807       -2.79817482       -1.55424941
 C            0.76233470       -4.07241814        0.24859948
 C            1.15733433       -3.96377270       -1.14331285
 C           -1.45679250       -3.34839388        1.12111296
 C           -0.67808513       -4.24822216        0.28593933
 C           -2.74731219       -1.34603717        0.50731062
 C           -2.42760321       -2.68282153        0.27315058
 C           -3.30723849       -0.63182753       -0.54228198
 C           -2.79345341        1.47812219        0.59474853
 C           -3.32107238        0.81232118       -0.50078953
 C           -1.72034380        3.52266891        1.41687355
 C           -0.63818003        4.21402640        0.73261826
 C           -2.50096757        2.82641174        0.42254739
 C           -0.78141755        3.95674834       -0.68924321
 C           -2.05655766        3.28308669       -0.88343787
 C            1.55035701        3.33704073       -0.81323423
 C            2.36768135        2.20172955       -1.21926608
 C            0.31981089        3.55126621       -1.43973020
 C            1.94444777       -0.03378082       -2.02849938
 C            1.89608540        1.35876434       -2.21368995
 C            1.28255276       -2.24891568       -2.72779275
 C            1.35382579       -0.88522797       -2.97945681
 C           -0.04690608       -4.02231846       -1.95722101
 C           -1.18018838       -4.15082728       -1.07387122
 C           -2.19175958       -3.11396512       -1.09781817
 C           -0.01285323       -2.89661295       -2.86384808
 C           -3.01257573       -1.04182890       -1.90737494
 C           -2.19696259       -2.15339940       -2.10970501
 C           -1.13917901       -2.09156417       -3.03689445
 C           -3.01938463        1.30722191       -1.83715268
 C           -2.21527412        2.44107924       -1.97998730
 C           -2.84803545        0.15375530       -2.71151148
 C            0.08742744        2.94216830       -2.66919631
 C            1.00280224        1.90991686       -3.12547695
 C           -1.25848274        2.49224098       -2.99107705
 C            0.39287979       -0.37745167       -3.84749911
 C           -0.94833202       -0.93649046       -3.79262816
 C           -1.88025662        0.17196574       -3.69811267
 C            0.27460314        1.04797065       -4.02525200
 C           -1.13571106        1.39403748       -3.93303184
