   70
C70 / DATE: 7/ 1/2024 / Origin: Program Fullerene / C70 from database
 C            1.50214204        0.06912804        4.87054503
 C            0.72127690       -1.14252496        4.69007608
 C            1.56143193       -2.10500548        4.01702839
 C            2.69255129       -0.04978519        4.04673834
 C            2.79714353       -1.43223124        3.64153321
 C            2.62815026        0.97061376        3.01290979
 C            0.72019216        1.17416638        4.35106268
 C            1.49390326        1.82624887        3.31138754
 C           -0.53658097       -0.77299100        4.06908477
 C           -0.59460426        0.67382143        3.99208341
 C           -1.02130640       -1.49889658        2.98742962
 C            1.04552647       -2.75984914        2.82985812
 C           -0.25122119       -2.51788326        2.40405580
 C            3.02973441       -1.71448889        2.24202062
 C            2.09208661       -2.74694713        1.83287447
 C            2.87198933        0.62977173        1.68102371
 C            3.28058202       -0.67312201        1.35389196
 C            2.38031516        1.47462347        0.67705127
 C            0.79188766        2.37538667        2.24871543
 C            1.39657984        2.42215363        0.99432867
 C           -1.21753110        1.25009359        2.88869995
 C           -0.59905163        2.35323162        2.30459959
 C           -2.04201002       -0.92302673        2.23280152
 C           -2.07077171        0.47025186        2.09712635
 C           -2.67284982       -1.71970517        1.28583454
 C           -0.59397586       -2.95064189        1.12869649
 C           -1.93302013       -2.85858498        0.78145332
 C            1.74141131       -2.80839661        0.48419810
 C            0.39212481       -2.95458657        0.12540647
 C            3.35606957       -1.03117139        0.01615403
 C            2.61157898       -2.20479531       -0.41579374
 C            2.71931221        1.23132817       -0.65558878
 C            3.20549446       -0.01803038       -1.00688292
 C            2.20424709        2.04069307       -1.66007029
 C            0.74288913        3.12455410       -0.02042721
 C            1.21453702        3.04564887       -1.32692470
 C           -1.29471989        3.04815268        1.33150922
 C           -0.54283508        3.60589720        0.22349032
 C           -2.64869283        1.05471946        0.96235378
 C           -2.47076434        2.41988236        0.76297539
 C           -3.32599270       -1.09422082        0.15386044
 C           -3.08242807        0.24873735       -0.09573329
 C           -2.33014742       -3.08235262       -0.58724846
 C           -3.27953197       -2.03849439       -0.94286812
 C            0.02266671       -2.87753863       -1.23045932
 C           -1.30142272       -3.10394097       -1.60259202
 C            2.18956159       -1.98225163       -1.78043642
 C            2.67972828       -0.67542777       -2.19138805
 C            0.92224503       -2.37805113       -2.18143954
 C            1.82956663        1.44292284       -2.93565196
 C            1.93608197        0.06016008       -3.10869511
 C            0.29247386        3.15842793       -2.45096559
 C            0.67341130        2.16917408       -3.44580587
 C           -1.47618610        3.76694198       -0.87623231
 C           -2.65929110        2.97897017       -0.55992316
 C           -1.05292205        3.41417488       -2.21671929
 C           -3.02070050        0.71319554       -1.42004674
 C           -2.89553446        2.07767412       -1.66687098
 C           -2.06129908        2.52273245       -2.76874843
 C           -2.91741808       -1.55446414       -2.25641063
 C           -1.84608432       -2.40687738       -2.75159476
 C           -2.84868898       -0.18315258       -2.48351288
 C            0.45033197       -1.87326152       -3.39265659
 C            1.00054590       -0.61908708       -3.88782522
 C           -0.97134862       -1.89331489       -3.69476861
 C           -0.31039878        1.49134984       -4.15414469
 C           -1.70269279        1.60118621       -3.74078519
 C           -2.24214116        0.25461110       -3.66000913
 C           -0.07148121        0.11307870       -4.53526814
 C           -1.30412538       -0.62860477       -4.32837032
