   70
C70 / DATE: 7/ 1/2024 / Origin: Program Fullerene / C70 from database
 C            1.31156658       -0.05892716        4.66700098
 C            2.60003510       -0.28099316        4.03819198
 C            2.58310048       -1.61611655        3.46838237
 C            0.47395428       -1.21662433        4.38543664
 C            1.21294915       -2.09702285        3.50831872
 C           -0.81638286       -0.73217390        3.94886523
 C            0.54964448        1.12763518        4.31988793
 C           -0.82725434        0.70985476        4.11480056
 C            1.10870978        2.08548304        3.47912709
 C            3.05073556        0.63261883        3.00314878
 C            2.36562111        1.81915725        2.78704871
 C            3.25303163       -1.56145231        2.18280283
 C            3.47497362       -0.15930926        1.86000545
 C            2.79712181       -2.40100620        1.17875785
 C            0.62707702       -2.53507498        2.32286680
 C            1.46582858       -2.97794392        1.30356709
 C           -1.40505496       -1.27292722        2.81195403
 C           -0.69235399       -2.18142852        2.01205497
 C           -2.51089089       -0.61160889        2.27694022
 C           -1.65888349        1.46146551        3.29362980
 C           -2.60750331        0.76905698        2.43497770
 C            0.25261882        2.83427659        2.57216148
 C           -1.10855326        2.56893765        2.52651583
 C            2.24418446        2.32807068        1.43382325
 C            0.97861059        3.02641460        1.32950021
 C            3.21639838        0.28680311        0.56163641
 C            2.66439565        1.55983620        0.35050644
 C            2.94602569       -1.97846458       -0.19966217
 C            3.23000081       -0.64531634       -0.48148642
 C            0.93488127       -3.15770028       -0.03649633
 C            1.91973065       -2.65479859       -0.97536581
 C           -1.24567279       -2.59838881        0.79815700
 C           -0.40469446       -2.90101717       -0.27826057
 C           -3.18940955       -1.19262350        1.21621665
 C           -2.59072727       -2.33906501        0.56450434
 C           -3.69230862       -0.32638784        0.16363097
 C           -2.83099534        1.59528318        1.25799515
 C           -1.79557809        2.60745416        1.24592862
 C           -3.18881974        0.96807554        0.06559215
 C            0.30857597        2.97516291        0.11391031
 C           -1.07913090        2.79770805        0.07576788
 C            2.19984443        1.90647881       -0.92081534
 C            1.05219584        2.70312739       -1.03241360
 C            3.04462137       -0.20803487       -1.78676987
 C            2.64036535        1.16365872       -2.00949228
 C            1.48692583       -2.06528447       -2.15746706
 C            2.25930048       -1.03466986       -2.68919409
 C           -0.80274790       -2.61139842       -1.58550764
 C            0.14112791       -2.17067920       -2.52216014
 C           -3.09981029       -2.37679916       -0.79320829
 C           -3.82733024       -1.13602607       -1.02388610
 C           -2.15821056       -2.53141206       -1.88286954
 C           -3.37085049       -0.59554879       -2.28248066
 C           -2.59855401       -1.63892404       -2.93590647
 C           -2.62962163        1.41021078       -1.14817388
 C           -1.67918710        2.44706133       -1.12956430
 C           -2.90841072        0.71648558       -2.34272912
 C            0.42708107        2.87011737       -2.26450752
 C           -1.02177901        2.81938131       -2.29413831
 C            1.91582522        1.21151136       -3.26819057
 C            1.70044398       -0.16385658       -3.70725326
 C            0.91748716        2.16090610       -3.43137930
 C           -0.28540756       -1.59220976       -3.72042873
 C           -1.69094624       -1.26470384       -3.91227103
 C            0.50397137       -0.52448522       -4.31326333
 C           -2.32543856        1.11994618       -3.54213910
 C           -1.42730008        2.25132607       -3.55668651
 C           -0.22412254        1.86627519       -4.28007371
 C           -1.75568234        0.09921967       -4.40774224
 C           -0.40934836        0.51140366       -4.76162911
