   70
C70 / DATE: 7/ 1/2024 / Origin: Program Fullerene / C70 from database
 C            1.20898326        0.03652794        4.19336425
 C            2.54368555       -0.33776239        3.78830566
 C            2.52523359       -1.75398554        3.45957970
 C            0.37705535       -1.15437044        4.11351090
 C            1.13636354       -2.17565488        3.42818306
 C           -0.89158987       -0.75464103        3.55346659
 C            0.52703196        1.08721717        3.45983578
 C           -0.85607988        0.67848659        3.34542195
 C            1.13663227        1.68053773        2.35720015
 C            3.14380113        0.35768319        2.67140169
 C            2.49086016        1.43511844        2.07922031
 C            3.33452762       -1.94782298        2.27080762
 C            3.76907537       -0.63322502        1.81053336
 C            2.91526726       -2.88271598        1.33902006
 C            0.62650200       -2.73469005        2.25677400
 C            1.51826061       -3.30122265        1.34091627
 C           -1.47325308       -1.52597920        2.55847332
 C           -0.69093732       -2.45787354        1.85444689
 C           -2.58915857       -0.98570564        1.92590451
 C           -1.61928189        1.18143439        2.30330806
 C           -2.68760146        0.41211228        1.85325626
 C            0.32725726        2.31054081        1.40261092
 C           -1.06675708        2.13052997        1.43808443
 C            0.92184857        3.03736556        0.36879069
 C            3.02867219        1.90191123        0.88964255
 C            2.25392221        2.79444228        0.05385317
 C            3.87714948       -0.35925754        0.44342806
 C            3.71394201        0.95752135        0.01783698
 C            3.32435316       -2.70930337       -0.03895633
 C            3.72642993       -1.38829423       -0.48734775
 C            1.10609648       -3.47463554       -0.04111953
 C            2.23485113       -3.15554449       -0.88892515
 C           -1.10752212       -2.87409079        0.58361967
 C           -0.15429944       -3.03525538       -0.41210716
 C           -3.23795816       -1.78260272        0.99258626
 C           -2.42561803       -2.67493664        0.19753152
 C           -4.25356547       -1.21622646        0.12805676
 C           -3.59886215        1.01866591        1.00006593
 C           -4.46954076        0.21117673        0.16772182
 C           -1.88003191        2.68602682        0.43986429
 C           -3.14998583        2.15127103        0.21271108
 C            0.12667785        3.65772848       -0.58647683
 C           -1.30321346        3.42970850       -0.58281944
 C            0.57132415        3.65197259       -1.97066284
 C            2.62021741        2.52056460       -1.32779486
 C            3.26214734        1.21863768       -1.33861596
 C            1.70748710        2.82284867       -2.32463945
 C            3.03893773       -1.12590618       -1.74567344
 C            2.04943766       -2.16987985       -1.93286538
 C            2.70078908        0.18214352       -2.07846982
 C           -0.33391120       -2.38304143       -1.63713236
 C            0.76086673       -1.79464690       -2.28088987
 C           -2.69566939       -2.36770485       -1.19674691
 C           -3.91783526       -1.58167760       -1.23943374
 C           -1.62952379       -2.03381470       -2.03001445
 C           -4.37560333        0.71524627       -1.19207942
 C           -3.57735302        1.92762651       -1.16052648
 C           -3.95565412       -0.37710529       -2.04776781
 C           -1.72267737        3.17661042       -1.95458391
 C           -0.54837230        3.25023440       -2.80156866
 C           -2.67229415        2.18655628       -2.18408391
 C            1.20748269        1.73710907       -3.15228461
 C            1.53808590        0.42231037       -2.81957499
 C            0.58615114       -0.59469548       -2.95945394
 C           -0.15298315        2.07129225       -3.54475415
 C           -1.80958450       -1.07203397       -3.02629574
 C           -2.93801905       -0.15162830       -2.96261022
 C           -2.41307802        1.19604976       -3.13938150
 C           -0.66099302       -0.32156963       -3.50502990
 C           -1.07859876        1.05429191       -3.70864799
