   70
C70 / DATE: 7/ 1/2024 / Origin: Program Fullerene / C70 from database
 C            1.18581672        0.10735461        4.87556625
 C            2.42310744       -0.11100337        4.15762076
 C            2.46723793       -1.51242629        3.77545256
 C            0.36677924       -1.08698462        4.72019226
 C            1.15504426       -2.08176440        4.01379222
 C           -0.91201200       -0.67578427        4.16323439
 C            0.37146374        1.24658981        4.50955617
 C           -0.97967699        0.76318910        4.28480953
 C            0.73537208        2.03375691        3.34282454
 C            2.70225358        0.67637867        2.96543397
 C            1.79198430        1.63219996        2.52302255
 C            3.02667214       -1.58033843        2.43848963
 C            3.29834969       -0.21968011        1.99687624
 C            2.50753171       -2.48335254        1.51509825
 C            0.55331349       -2.81631109        3.00107460
 C            1.30859003       -3.14363107        1.79933347
 C           -1.36929477       -1.27482887        2.99095059
 C           -0.79952369       -2.47843654        2.58195407
 C           -2.14128848       -0.54087359        2.08137536
 C           -1.52373852        1.51424255        3.17611416
 C           -0.51146575        2.44364259        2.72016394
 C           -2.24912537        0.85247678        2.20284488
 C           -0.49949715        2.77039514        1.36869963
 C            1.74099351        1.94919965        1.16541191
 C            0.72955656        2.80085720        0.72007699
 C            3.18488859        0.06561400        0.64103740
 C            2.45990267        1.18773555        0.23207505
 C            2.87920369       -2.31444205        0.18610872
 C            3.32273683       -0.99659801       -0.24286480
 C            2.02788521       -2.83486917       -0.86622833
 C            0.33890357       -3.37367085        0.73574185
 C           -0.95363286       -2.91009283        1.20260251
 C            0.69715526       -3.12651869       -0.58056171
 C           -2.53390337       -1.14312681        0.88004163
 C           -1.74936107       -2.16281465        0.34440245
 C           -3.39153901       -0.44596062        0.03702274
 C           -2.57482588        1.58171477        1.06871327
 C           -1.64838131        2.52887750        0.60544558
 C           -3.46332236        0.99349425        0.18690855
 C           -1.65434312        2.93577806       -0.73636417
 C            0.76967988        3.26544076       -0.58434119
 C           -0.48781493        3.46970925       -1.28065246
 C            2.27501867        1.42884472       -1.13273911
 C            1.67891600        2.62504788       -1.51379691
 C            2.93594133       -0.83011580       -1.63261260
 C            2.34990306       -2.08633261       -2.06862771
 C            2.35940555        0.36789142       -2.04441816
 C            1.42120011       -2.05876596       -3.09281328
 C           -0.28850642       -2.75657417       -1.49641112
 C           -1.48421351       -2.18480345       -1.02985352
 C            0.09643846       -2.58467741       -2.82238992
 C           -3.37353874       -0.73321785       -1.38517878
 C           -2.36357408       -1.53479670       -1.90786991
 C           -3.65849789        1.57974684       -1.11799230
 C           -2.68021997        2.53261910       -1.59173368
 C           -3.72880759        0.49398971       -2.08021788
 C           -2.37964089        2.19229465       -2.97618171
 C           -2.95963157        0.88382837       -3.24857397
 C           -0.22398847        3.31512421       -2.70036217
 C            1.10866387        2.74794502       -2.83950182
 C           -1.13717649        2.52304135       -3.50431868
 C            1.61598598        0.38568665       -3.23293998
 C            1.22830599       -0.81832764       -3.81851076
 C            1.00278392        1.56071391       -3.65788378
 C           -0.35163027        1.50994277       -4.19240228
 C           -0.81195175       -1.96108238       -3.75896843
 C           -2.03545430       -1.38477557       -3.25385706
 C           -2.19912077       -0.08538339       -3.89000150
 C           -0.07787642       -0.90788305       -4.44605214
 C           -0.92040932        0.27488114       -4.48284686
