   70
C70 / DATE: 7/ 1/2024 / Origin: Program Fullerene / C70 from database
 C            1.50469037        0.20619107        5.02213972
 C            0.71543858       -0.98442112        4.77556439
 C            1.56259608       -1.91776917        4.07225660
 C            2.67250329        0.14294905        4.15556521
 C            2.73238760       -1.18715977        3.60052774
 C            2.59710730        1.26739501        3.24569062
 C            0.71722132        1.35035541        4.60251542
 C            1.56153272        2.15464812        3.75000834
 C           -0.52744685       -0.57903294        4.14337395
 C           -0.53672631        0.87175932        4.04596658
 C           -1.02183842       -1.30759047        3.06977261
 C            1.00496593       -2.60653676        2.92849850
 C           -0.34095212       -2.44521754        2.60697976
 C            2.78072582       -1.33904937        2.15782176
 C            1.95745044       -2.48537064        1.84722638
 C            2.69674492        1.07068971        1.86269014
 C            2.69815638       -0.22434232        1.32431413
 C            2.35894970        2.13862405        1.03415064
 C            0.93352100        2.97140499        2.83222911
 C            1.59316340        3.17713720        1.56649619
 C           -1.01841369        1.47705011        2.87888568
 C           -0.45865216        2.69276300        2.49323191
 C           -1.89721355       -0.65819693        2.20735270
 C           -1.68332569        0.69360075        1.92673283
 C           -2.61376344       -1.43572189        1.31692723
 C           -0.75899234       -3.00302230        1.39668955
 C           -2.05880650       -2.72979689        0.97879335
 C            1.44837386       -2.60498304        0.56819004
 C            0.22533211       -3.24902629        0.43192521
 C            2.30088877       -0.41931771       -0.00434118
 C            1.80579367       -1.66694924       -0.40327126
 C            2.35874180        1.96637188       -0.34900672
 C            2.21293629        0.67149871       -0.86824090
 C            1.96257053        3.05987123       -1.11352113
 C            0.59050700        3.79151690        0.72862575
 C           -0.66494547        3.18402185        1.13997905
 C            0.85872538        3.86265462       -0.61980306
 C           -1.89853428        1.17864535        0.62291153
 C           -1.36350055        2.40436895        0.22029054
 C           -3.09566690       -0.83658535        0.09165122
 C           -2.57409392        0.38921620       -0.31034400
 C           -2.45996786       -3.04210063       -0.38051296
 C           -3.23935508       -1.90997172       -0.87287423
 C           -0.13849329       -3.63001919       -0.84874506
 C           -1.54222823       -3.66831223       -1.21196129
 C            1.30294113       -1.84447057       -1.69661702
 C            0.57236470       -3.00758309       -1.94929026
 C            1.79198276        0.47302049       -2.19186347
 C            1.20087616       -0.74569811       -2.56271357
 C            1.74440461        2.89308482       -2.53195031
 C            1.75552991        1.55388158       -3.07209114
 C           -0.22603895        3.59518530       -1.53271054
 C           -1.20878641        2.67776727       -1.14412779
 C            0.42725405        3.44889827       -2.81393753
 C           -2.50429406        0.70089107       -1.67262436
 C           -1.78790042        1.82582346       -2.09462603
 C           -3.23351064       -1.59657911       -2.22323845
 C           -2.94675445       -0.22767176       -2.62402641
 C           -1.61911127       -3.45999186       -2.64497596
 C           -0.28810277       -3.08341628       -3.10507744
 C           -2.55885215       -2.48219930       -3.15724646
 C            0.41419151       -0.82207089       -3.73266060
 C           -2.29631608       -0.28532788       -3.92489384
 C           -0.42142459       -1.91438666       -3.93659519
 C           -1.84111179       -1.65183914       -4.10324053
 C            0.76881134        1.55993970       -4.12670811
 C           -0.19143482        2.60252881       -3.79811935
 C           -1.41729004        1.92209571       -3.44020041
 C            0.00516094        0.35638703       -4.34302811
 C           -1.40069630        0.71949117       -4.24078969
