   70
C70 / DATE: 7/ 1/2024 / Origin: Program Fullerene / C70 from database
 C            1.32208489       -0.11726987        5.36576758
 C            0.47218819       -1.29476709        5.34589853
 C            1.12816166       -2.30263333        4.53414018
 C            2.49655700       -0.40076790        4.56130863
 C            2.34303870       -1.72528380        3.98375290
 C            2.69308108        0.72045593        3.66357082
 C            0.60522225        0.95988498        4.70782500
 C            1.48470305        1.53157041        3.70103462
 C           -0.76500351       -0.94246674        4.67105757
 C           -0.68136840        0.44826185        4.27338510
 C            0.14194597       -2.82840457        3.61209350
 C           -1.00589546       -1.93140490        3.63486322
 C            0.58711882       -3.28305001        2.38329886
 C            2.61988062       -1.90569985        2.62705340
 C            1.90247118       -2.86488619        1.91119428
 C            3.26937715        0.46803065        2.43030620
 C            3.30036643       -0.90360969        1.93465094
 C            2.90657958        1.31421107        1.30897605
 C            0.92143944        1.95315274        2.49667044
 C            1.73150014        2.05570700        1.36258316
 C           -1.11378015        0.78755298        2.99944523
 C           -0.45545612        1.80851140        2.32032248
 C           -1.55154268       -1.50584503        2.42210748
 C           -1.82361615       -0.14770717        2.24658525
 C           -0.30986543       -3.19350940        1.25020764
 C           -1.38236795       -2.30353177        1.29088539
 C            1.84415855       -2.80330881        0.45469814
 C            0.51486369       -3.22696445        0.05882085
 C            3.23162419       -0.84187994        0.48046358
 C            3.19121066        0.56211178        0.10784968
 C            2.44129064       -1.74771589       -0.22666879
 C            2.52511334        0.90389894       -1.05405988
 C            1.14421167        2.46035733        0.16222617
 C            1.68518926        2.01823550       -1.05216769
 C           -1.02200043        2.25702027        1.13539171
 C           -0.18706583        2.85548285        0.19592520
 C           -2.36057820        0.28255556        1.03563988
 C           -2.17813615        1.61761225        0.69196962
 C           -1.92042231       -1.87777261        0.07659418
 C           -2.57736643       -0.64624528        0.01663308
 C           -0.02679580       -2.71296088       -1.10486234
 C           -1.37909024       -2.40440743       -1.09402803
 C            1.93351816       -1.36772674       -1.47574916
 C            2.27122058       -0.10700518       -1.96710402
 C            0.79811621       -2.01426253       -1.98358707
 C            1.83610712        0.26580646       -3.22578966
 C            1.06438622        2.37626532       -2.25483157
 C            1.34875600        1.62321059       -3.39518945
 C           -0.75428380        3.38861709       -0.95222979
 C           -0.08081691        3.17480804       -2.22151551
 C           -2.81824512        2.10732091       -0.43498977
 C           -2.17412340        3.18172544       -1.16541831
 C           -3.08571359       -0.20681315       -1.21294136
 C           -3.33049908        1.15555265       -1.40487597
 C           -1.97300020       -2.08908654       -2.30133566
 C           -2.98190596       -1.04930368       -2.31789289
 C            0.25033674       -1.59182835       -3.20000606
 C            0.91777975       -0.60577803       -3.92697136
 C           -1.10381680       -1.85113322       -3.43803773
 C            0.42005372        1.61129657       -4.51216879
 C            0.20903466        0.22195492       -4.89181530
 C           -1.10778579        3.04346576       -3.25073320
 C           -2.39397474        2.96204542       -2.58164857
 C           -3.18939083        1.75574326       -2.72775125
 C           -0.87803033        2.23657564       -4.35710609
 C           -3.00037147       -0.49443207       -3.66218475
 C           -1.86560467       -1.05241634       -4.38378697
 C           -1.21047597        0.02435686       -5.09381320
 C           -2.97521160        0.94434187       -3.83336698
 C           -1.88908579        1.26417819       -4.75056939
