   70
C70 / DATE: 7/ 1/2024 / Origin: Program Fullerene / C70 from database
 C            1.04228236       -0.12472928        4.86205681
 C            2.30629278       -0.34404551        4.18446877
 C            2.20848613       -1.60991294        3.47846537
 C            0.19227443       -1.27357129        4.58601662
 C            0.82949888       -2.04865187        3.54077320
 C           -1.14629312       -0.78637148        4.36137690
 C            0.27488386        1.07291345        4.56407280
 C           -1.10688007        0.67008736        4.39402819
 C            0.80119910        2.03907831        3.71408623
 C            2.78645618        0.64984490        3.23996743
 C            2.12372916        1.86274473        3.12496822
 C            2.80284678       -1.43146032        2.17179184
 C            3.20152300       -0.04341428        2.03002475
 C            2.20441633       -2.03100105        1.08092232
 C            0.16065524       -2.29717125        2.33967627
 C            0.91774741       -2.56853778        1.20257177
 C           -1.82793724       -1.16898105        3.14158985
 C           -1.19221859       -1.96860446        2.18736396
 C           -1.84959002        1.15136916        3.23975543
 C           -2.53768936        0.00496825        2.68225418
 C           -0.05316680        2.65524950        2.70607248
 C           -1.26571186        2.06904036        2.36561747
 C            2.11711917        2.53304067        1.84029255
 C            0.81098575        3.14618781        1.65685706
 C            3.03959272        0.57425076        0.78389129
 C            2.72752353        1.93887537        0.73764922
 C            2.61216941       -1.60220638       -0.17005336
 C            2.83245099       -0.23277408       -0.35069863
 C            2.24402698       -2.39152236       -1.24546340
 C            0.27300668       -2.98977179        0.04262872
 C            1.08183786       -3.23841327       -1.06179456
 C           -1.76266683       -2.01766665        0.90795217
 C           -1.06909343       -2.63070422       -0.14527958
 C           -2.88934842        0.04752763        1.35027020
 C           -2.80490475       -1.13169683        0.62216275
 C           -1.70443466        2.10447638        1.03688948
 C           -2.74423437        1.25005518        0.66857222
 C            0.33057213        3.26174078        0.36037214
 C           -0.93015564        2.72917633        0.04199062
 C            2.49561214        2.53674363       -0.49400459
 C            1.29864376        3.35071227       -0.63233842
 C            2.56218769        0.35965499       -1.59108637
 C            2.60382698        1.74160955       -1.69851249
 C            2.12788273       -1.79076497       -2.55455088
 C            2.02954722       -0.40524226       -2.63809922
 C            0.48262085       -3.44461866       -2.35756473
 C            1.22668951       -2.63680071       -3.31409297
 C           -1.64847464       -2.67097294       -1.42681702
 C           -0.91843716       -3.13778571       -2.51903118
 C           -3.40658061       -1.15425992       -0.62466024
 C           -2.81665751       -1.95229643       -1.67833503
 C           -3.28125761        1.33529649       -0.60563078
 C           -3.80862164        0.11806952       -1.20121249
 C           -1.36079404        2.69831088       -1.29771663
 C           -2.54376512        2.04671112       -1.62965246
 C            0.90125569        3.31641031       -2.01720195
 C            1.78694750        2.38775064       -2.70217121
 C           -0.45822834        2.94200678       -2.32907402
 C            1.20366323        0.19077503       -3.60955383
 C            0.97079497        1.55765732       -3.55922837
 C           -0.40526170        2.01931821       -3.45108548
 C            0.27034942       -2.01246934       -4.19656060
 C           -1.05373681       -2.45580405       -3.79440805
 C            0.24152961       -0.56797058       -4.26897660
 C           -2.95174790       -1.21024875       -2.92726919
 C           -3.45030239        0.10967025       -2.60592761
 C           -2.59724721        1.25655184       -2.85516965
 C           -1.44094816        1.10131749       -3.62101406
 C           -1.94989254       -1.31773874       -3.87646073
 C           -1.14684962       -0.14101206       -4.19675286
