   70
C70 / DATE: 7/ 1/2024 / Origin: Program Fullerene / C70 from database
 C            1.39456720       -0.06568648        4.02132092
 C            2.49614298       -0.14614506        3.07842215
 C            2.42951135       -1.45339306        2.43747736
 C            0.52692044       -1.20677502        3.79107417
 C            1.16888251       -2.06525697        2.81341925
 C           -0.80395066       -0.70831131        3.49949553
 C            0.57012508        1.12373024        4.03119006
 C           -0.79631080        0.72498875        3.70929203
 C            1.08348349        2.28479511        3.47585774
 C            2.84477063        0.97433142        2.32217851
 C            2.20419947        2.19620227        2.54786666
 C            3.48937018        0.78319552        1.10225012
 C            2.87928749       -1.59263513        1.12790813
 C            3.63951720       -0.56395338        0.57968548
 C            2.24881483       -2.50864397        0.27770267
 C            0.39310942       -2.63354777        1.81503111
 C            1.02588333       -3.07563543        0.65481592
 C           -1.47533531       -1.22450865        2.39961671
 C           -0.98074132       -2.37685109        1.79368263
 C           -2.40792016       -0.43327621        1.72008040
 C           -1.57603531        1.52979850        2.88369653
 C           -2.49863242        0.94005989        2.01313916
 C            0.15612216        3.26881988        2.95368238
 C           -1.21106292        2.86318969        2.68923323
 C            1.89906422        3.04663394        1.40698680
 C            0.69821458        3.78593999        1.70574988
 C            3.14308077        1.64379282       -0.01978762
 C            2.09552937        2.53919801        0.12979664
 C            3.76360526       -0.45098954       -0.86194486
 C            3.25566780        0.86312598       -1.23203759
 C            2.69946231       -2.63880396       -1.03823255
 C            3.43341695       -1.54246293       -1.64872365
 C            1.82802978       -3.20982189       -2.05472723
 C            0.29944497       -3.83370077       -0.25791852
 C            0.60453859       -3.73353597       -1.67172614
 C           -1.77636905       -3.02549557        0.86424080
 C           -1.14589427       -3.86638109       -0.13718817
 C           -3.15174452       -0.99702587        0.66805969
 C           -2.82880348       -2.27295773        0.21094337
 C           -3.81239556       -0.16835689       -0.23161129
 C           -3.26101443        1.78026701        1.20363937
 C           -3.97825934        1.23114450        0.07433727
 C           -1.60009628        3.53261938        1.46236512
 C           -0.37074703        3.78378927        0.73280930
 C           -2.68069462        3.03426789        0.76067825
 C            1.03399966        2.51369902       -0.79019971
 C           -0.18403868        3.15693827       -0.49799848
 C            2.27108153        0.96841895       -2.20668439
 C            1.18324669        1.82527072       -2.00462859
 C            2.84913061       -1.29459631       -2.95348430
 C            1.87029601       -2.33639389       -3.21330854
 C            2.20622353       -0.01433415       -3.19431496
 C            0.64135491       -1.69200111       -3.64777396
 C            0.94483436       -0.28684966       -3.85843640
 C           -0.60215038       -3.25543383       -2.33064072
 C           -1.70461518       -3.51245363       -1.43334036
 C           -2.67879155       -2.46789586       -1.22327579
 C           -0.56281805       -2.05993595       -3.04603642
 C           -3.49131101       -0.28681304       -1.64564284
 C           -2.67794867       -1.34659261       -2.04619566
 C           -1.58339200       -1.10651580       -2.89593698
 C           -3.58962019        1.99206618       -1.10412047
 C           -2.57768381        2.94277479       -0.68346722
 C           -1.31548024        2.89685840       -1.27562486
 C           -3.26750499        1.05208542       -2.16166388
 C            0.13477974        1.81210122       -2.92090067
 C           -0.07561955        0.63629975       -3.74797026
 C           -1.41406638        0.15675041       -3.46565021
 C           -1.17331609        2.28212949       -2.51294384
 C           -2.15134516        1.28868487       -2.94358825
