   70
C70 / DATE: 7/ 1/2024 / Origin: Program Fullerene / C70 from database
 C            1.21714884       -0.02766882        5.09239794
 C            0.43031665       -1.21624097        4.81187550
 C            1.25460406       -2.12593786        4.05535621
 C            2.45396985       -0.13098046        4.33753739
 C            2.51509409       -1.45324236        3.76496907
 C            2.51502239        1.00016777        3.43917526
 C            0.48190061        1.12186410        4.58669721
 C            1.31396207        1.79954571        3.62881712
 C           -0.81876031       -0.78606093        4.22505674
 C           -0.80651503        0.66626987        4.13789529
 C           -1.37294027       -1.49036673        3.15844474
 C            0.73838401       -2.64315557        2.80144076
 C           -0.55728208       -2.32661235        2.37491101
 C            2.75599418       -1.57572887        2.33886104
 C            1.81928716       -2.55946464        1.83918014
 C            2.98169919        0.83692872        2.13692329
 C            3.00502065       -0.44482557        1.55739336
 C            2.80805603        1.93507188        1.30563374
 C            0.73112666        2.36390326        2.49742323
 C            1.62080621        2.75043531        1.50677075
 C           -1.38009656        1.24563421        3.00970883
 C           -0.58134610        2.00283041        2.12878033
 C           -2.46597838       -0.88318915        2.55988487
 C           -2.47807452        0.57149377        2.50057564
 C           -2.94458762       -1.36477839        1.28607901
 C           -0.85921766       -2.52791463        1.01714528
 C           -2.10463331       -2.14402172        0.50184687
 C            1.48136916       -2.51430862        0.50108466
 C            0.18435818       -2.85026748        0.14449517
 C            2.87767115       -0.57535792        0.16701174
 C            2.21127765       -1.69404986       -0.35549296
 C            3.00670864        1.79373359       -0.11884181
 C            3.14057608        0.52369541       -0.65425149
 C            1.12484303        3.13650880        0.20981339
 C            2.11793426        2.73781204       -0.77482960
 C           -1.03159838        2.25544876        0.81197636
 C           -0.21617304        2.96290609       -0.08411003
 C           -3.01969813        0.94717580        1.21881898
 C           -3.63712147       -0.24778112        0.67478870
 C           -2.27274235        1.75930444        0.37662017
 C           -3.87325583       -0.29555277       -0.68354780
 C           -2.34875402       -2.20974188       -0.87523669
 C           -3.37692118       -1.44041325       -1.42404518
 C           -0.07505376       -3.05683283       -1.19950152
 C           -1.40113509       -2.78846630       -1.71465682
 C            1.96293052       -1.78564533       -1.72608757
 C            0.89215692       -2.56693419       -2.16896916
 C            3.01794757        0.39392663       -2.03212204
 C            2.54120881       -0.85764793       -2.58280898
 C            1.70747166        2.47099660       -2.07664076
 C            2.37600299        1.46782891       -2.77769265
 C           -0.58635554        3.08131003       -1.41789265
 C            0.41331468        2.84006956       -2.45103753
 C           -2.61398646        1.78997624       -0.97952014
 C           -3.54190892        0.87286058       -1.47561939
 C           -1.84156153        2.52363380       -1.86935329
 C           -3.30913636       -1.03193518       -2.81755171
 C           -3.43281728        0.41842569       -2.85085213
 C           -1.25699773       -2.33084941       -3.09165552
 C            0.16363111       -2.20261529       -3.37534485
 C           -2.14944879       -1.39924463       -3.60541475
 C            1.90924179       -0.56112247       -3.85825519
 C            1.77689094        0.88362339       -3.96361634
 C            0.61989329       -1.15255005       -4.16138956
 C           -0.25141548        2.19482890       -3.57546809
 C           -1.65811559        2.05312690       -3.23715154
 C           -2.36455997        0.94181266       -3.68002634
 C           -1.64571727       -0.19159811       -4.24299306
 C            0.39481376        1.18530897       -4.27780329
 C           -0.28872880       -0.07535515       -4.52560941
