   70
C70 / DATE: 7/ 1/2024 / Origin: Program Fullerene / C70 from database
 C            1.36363234       -0.03429657        4.92170527
 C            0.57880126       -1.20422890        4.57045047
 C            1.45233311       -2.11629753        3.87294541
 C            2.60776218       -0.10025237        4.17232217
 C            2.69540755       -1.41263934        3.58044326
 C            2.65388657        1.04920023        3.29507449
 C            0.63601406        1.13752000        4.46647766
 C            1.50712952        1.89384495        3.59550754
 C           -0.62136530       -0.75061938        3.89363388
 C           -0.63093282        0.70169492        3.92471317
 C           -1.04982169       -1.38448930        2.72693925
 C            0.98672182       -2.69158606        2.62899925
 C           -0.30595790       -2.43390108        2.16809361
 C            2.92600455       -1.51645175        2.14979838
 C            2.07293838       -2.58348343        1.67794073
 C            3.03293548        0.90362134        1.96039491
 C            3.04312808       -0.36991844        1.36356464
 C            2.85640781        2.02062052        1.15486266
 C            0.93716251        2.60536684        2.54477342
 C            1.77806171        2.93712485        1.48656963
 C           -1.13046658        1.36939277        2.81438377
 C           -0.43598696        2.46944587        2.29891605
 C           -1.95479494       -0.70458848        1.91492957
 C           -2.01992973        0.69096198        1.98605920
 C           -2.50180260       -1.36385644        0.81983295
 C           -0.59194666       -2.82114997        0.85577820
 C           -1.81798156       -2.45832618        0.29141677
 C            1.73099610       -2.61234551        0.33984780
 C            0.48583298       -3.12629072        0.01694354
 C            2.84545800       -0.49724294       -0.02022249
 C            2.30124425       -1.68763761       -0.53436716
 C            2.89409869        1.88337329       -0.28382653
 C            3.00135298        0.62004762       -0.84613254
 C            1.22078875        3.44733394        0.24666319
 C            1.93315526        2.81735208       -0.85047553
 C           -1.00030132        3.15934444        1.22792884
 C           -0.14540739        3.63003120        0.14781339
 C           -2.70946287        1.40551990        1.00927149
 C           -2.22308472        2.65359589        0.62285371
 C           -3.48121880       -0.71647293        0.07116128
 C           -3.58669107        0.72813313        0.16884165
 C           -3.70903528       -1.09221564       -1.31526605
 C           -2.15144548       -2.94178493       -0.97218467
 C           -2.98590797       -2.14328271       -1.85149387
 C            0.25831157       -3.43763629       -1.31185339
 C           -1.10555247       -3.52414834       -1.78803424
 C            1.99007277       -1.79254250       -1.89573371
 C            1.04712460       -2.74066486       -2.31275832
 C            2.74248540        0.51141720       -2.20727811
 C            2.35328234       -0.76785129       -2.76024288
 C            1.26089272        2.44531143       -2.01215684
 C            1.90935045        1.52897898       -2.83184663
 C           -0.80560032        3.32261107       -1.10804608
 C           -2.18380866        3.00640538       -0.78927465
 C           -0.13649201        2.58051864       -2.08246684
 C           -3.82330805        1.24732609       -1.16652631
 C           -3.82778229        0.12705995       -2.08992738
 C           -2.92291743        2.25788576       -1.68855017
 C           -0.88522955        1.86712664       -3.03386131
 C           -2.84492705        0.39310180       -3.12495189
 C           -2.25717327        1.69715289       -2.85329135
 C           -2.24399664       -1.93813560       -3.08963917
 C           -1.16129836       -2.90474956       -3.10214713
 C            0.17345176       -2.45670569       -3.44468173
 C           -2.02115741       -0.64201468       -3.56352467
 C            1.53668513       -0.49967512       -3.93267504
 C            1.18973496        0.91150730       -3.91914127
 C           -0.25020450        1.01869246       -3.93476018
 C            0.31592841       -1.25770213       -4.12252521
 C           -0.79558440       -0.31343708       -4.14798784
