   70
C70 / DATE: 7/ 1/2024 / Origin: Program Fullerene / C70 from database
 C            1.58398956        0.04050346        4.61157627
 C            0.78132858       -1.16380928        4.50437294
 C            1.27260217       -1.93610460        3.37821086
 C            2.60222178       -0.01625784        3.57960080
 C            2.48105474       -1.28443951        2.89588938
 C            2.49645718        1.18420692        2.78051320
 C            0.71869537        1.16819440        4.31231513
 C            1.26933170        1.85716053        3.16881132
 C           -0.60620277       -0.76009857        4.49490628
 C           -0.63549690        0.67375262        4.22115352
 C           -1.50678845       -1.56927399        3.82140616
 C            0.35605289       -2.43963660        2.44858446
 C           -1.00333606       -2.44643841        2.76539807
 C            0.75448943       -2.57430010        1.11382521
 C            2.73073903       -1.31717990        1.53416306
 C            2.08118752       -2.29082882        0.79539757
 C            2.77610534        1.09517595        1.42159953
 C            3.12489878       -0.14701670        0.87555597
 C            2.22126139        2.05571542        0.58302565
 C            0.42028673        2.28389637        2.15584282
 C            1.00561712        2.64449632        0.94679330
 C           -1.46989643        1.15038116        3.20982875
 C           -0.94564591        1.95034004        2.18031244
 C           -2.71207116       -0.94637258        3.31939751
 C           -2.65996340        0.46795681        2.99377675
 C           -1.97990719       -2.45410160        1.68879499
 C           -3.10449969       -1.65836009        2.11920835
 C           -0.20410473       -2.59319181        0.08938265
 C           -1.53780875       -2.32525685        0.37683605
 C            0.20937515       -2.65338852       -1.24048344
 C            2.52509893       -2.51111369       -0.49418025
 C            1.55754881       -2.90331044       -1.49407794
 C            3.40956701       -0.23151721       -0.49331898
 C            3.35997803       -1.48865599       -1.09785188
 C            2.65271693        2.09417763       -0.73553569
 C            3.30582863        0.91751163       -1.28257769
 C            1.79750842        2.65727542       -1.76674641
 C            0.21847787        3.27783809       -0.00205335
 C            0.59458280        3.23703105       -1.40528417
 C           -1.75548866        2.30615810        1.08716347
 C           -1.22120671        3.12409156        0.08787780
 C           -3.36394848        0.64211565        1.74365685
 C           -3.62335174       -0.68196180        1.19559257
 C           -2.97108834        1.64408782        0.86255548
 C           -2.32833760       -1.66744186       -0.57589807
 C           -3.40368499       -0.85723984       -0.16086295
 C           -0.62876582       -2.14730438       -2.24541602
 C           -1.87812170       -1.61209560       -1.90490082
 C           -0.12935690       -1.89912690       -3.52922092
 C            2.14083557       -2.57451102       -2.77815682
 C            3.19827725       -1.60285485       -2.53717275
 C            1.28348885       -2.05138150       -3.81108574
 C            2.92371746        0.82156976       -2.68591117
 C            1.83972490        1.76667951       -2.91290623
 C            2.89677515       -0.41587747       -3.31210193
 C            1.78740777       -0.73798393       -4.19046352
 C           -0.53539343       -0.68758810       -4.21122587
 C            0.65159334        1.33942854       -3.50800254
 C            0.64338009        0.15765544       -4.24933128
 C           -0.59752743        2.93002019       -2.17260797
 C           -1.73469987        3.04961859       -1.26966002
 C           -0.56694494        1.91697791       -3.13378938
 C           -3.47352054        1.54956949       -0.43639387
 C           -3.76896904        0.22229908       -0.94784204
 C           -2.88108666        2.31639379       -1.51631208
 C           -2.52352823       -0.78385271       -2.82764323
 C           -1.73739958       -0.11739337       -3.84737049
 C           -1.75645424        1.29456186       -3.50963828
 C           -3.46955353        0.19913340       -2.35458607
 C           -2.95805240        1.51129189       -2.72271529
