   70
C70 / DATE: 7/ 1/2024 / Origin: Program Fullerene / C70 from database
 C            1.67412515       -0.20278375        4.91602865
 C            0.81780561       -1.37479462        4.95926784
 C            1.29063574       -2.30354410        3.95067038
 C            2.63489492       -0.39017185        3.84408687
 C            2.40864941       -1.69925898        3.25680778
 C            2.56751246        0.77161316        2.97058733
 C            0.84835921        0.93180698        4.55439756
 C            1.49202472        1.62289095        3.44533357
 C           -0.52445885       -0.96710096        4.57474767
 C           -0.51203087        0.46025210        4.35529508
 C            0.14927394       -2.70151287        3.15744855
 C           -0.95641299       -1.81723431        3.48425216
 C            0.34617383       -2.98462629        1.81804727
 C            2.44868149       -1.80299877        1.87120421
 C            1.57891864       -2.68814762        1.22444020
 C            2.68942058        0.56741024        1.60169441
 C            2.94999112       -0.72566433        1.14917828
 C            2.11531077        1.49047359        0.72070506
 C            0.66833393        2.22737423        2.50202416
 C            1.12258164        2.35890101        1.18499820
 C           -1.19644451        0.97095058        3.26328501
 C           -0.70385574        2.14481045        2.71428894
 C           -1.67990527       -1.25564667        2.42864656
 C           -1.93722812        0.12101730        2.42839860
 C           -0.77470142       -2.96782944        1.01015822
 C           -1.71501374       -1.95024859        1.21680890
 C           -0.64165563       -3.54050668       -0.23917433
 C            1.70777435       -2.85875280       -0.16224544
 C            0.66429244       -3.46193356       -0.86847716
 C            3.20561121       -0.91200716       -0.19570303
 C            2.62940454       -2.07307491       -0.85467987
 C            2.30748887        1.31868789       -0.65061783
 C            3.04241097        0.21755167       -1.08704079
 C            1.53087754        2.03549385       -1.56353811
 C            0.30638745        3.03676494        0.27303459
 C            0.52653791        2.89282160       -1.10455171
 C           -1.53289194        2.82996789        1.85467223
 C           -0.92062014        3.51472517        0.74067943
 C           -2.58106309        0.69986747        1.32740677
 C           -2.64810001        2.09226377        1.29807838
 C           -2.38817822       -1.38816988        0.12730432
 C           -2.67202364       -0.02107085        0.12656953
 C           -1.64866003       -3.27436177       -1.23827127
 C           -2.48131465       -2.10385481       -1.06505335
 C            0.45490467       -3.14427348       -2.27360423
 C           -0.97742521       -3.16626485       -2.51964266
 C            2.37956480       -1.70525227       -2.24201481
 C            2.81520281       -0.32317707       -2.41123866
 C            1.22960975       -2.16261625       -2.88435317
 C            1.62174726        1.74079084       -2.92924006
 C            2.19874189        0.47592311       -3.35643996
 C            0.49597621        2.02241523       -3.80580604
 C           -0.38616767        3.42056533       -2.02357459
 C           -0.56142289        2.75628279       -3.29774334
 C           -2.00424594        3.78138128       -0.17965896
 C           -3.02521323        2.77357042        0.07837928
 C           -1.72375406        3.76758741       -1.59216350
 C           -2.85858799        0.64202160       -1.09883670
 C           -1.87457065        2.12742166       -3.24316053
 C           -3.16857429        1.99565182       -1.12773265
 C           -2.62319479        2.79951034       -2.20047075
 C           -2.48548804       -1.38239164       -2.32536661
 C           -1.57512300       -2.05915216       -3.23711257
 C           -2.51724124        0.00565399       -2.29469242
 C           -1.95196776        0.74076197       -3.34705948
 C            0.68622389       -1.42446618       -3.93676931
 C            1.27273579       -0.14175010       -4.28434940
 C            0.18906523        0.79522119       -4.51953503
 C           -0.76104848       -1.29316180       -4.05457802
 C           -1.05866664        0.11739753       -4.21442966
