   70
C70 / DATE: 7/ 1/2024 / Origin: Program Fullerene / C70 from database
 C            1.66615671       -0.09469382        4.48098400
 C            0.82960256       -1.26685728        4.30310449
 C            1.53294393       -2.16943242        3.41661730
 C            2.67055274       -0.11386678        3.43233962
 C            2.61387303       -1.41327233        2.79905600
 C            2.47827428        1.05920428        2.60312628
 C            0.83418692        1.07106530        4.26464534
 C            1.44757755        1.87341152        3.22390311
 C           -0.49818867       -0.82132902        3.91377537
 C           -0.52914916        0.62468899        4.04615786
 C           -1.11127891       -1.41974511        2.81161821
 C            0.77262263       -2.99377395        2.60084980
 C           -0.62256848       -2.64318950        2.36086306
 C            1.33015054       -3.40155338        1.32405194
 C            2.76586270       -1.49542211        1.42003320
 C            2.40412173       -2.68983378        0.80183073
 C            2.46621887        0.90845346        1.21826233
 C            2.81775285       -0.32041292        0.65232542
 C            1.78665138        1.84901002        0.44243617
 C            0.59994870        2.59070353        2.39396162
 C            0.99901728        2.81314632        1.07934450
 C           -1.29666122        1.35167781        3.15071181
 C           -0.76698680        2.54568440        2.66625573
 C           -1.92416876       -0.64505786        1.97579888
 C           -2.21154879        0.66872220        2.35411002
 C           -2.21437122       -1.07454272        0.66927543
 C           -0.96822595       -3.10561551        1.03175393
 C            0.21647363       -3.72043895        0.44945699
 C           -1.78804739       -2.33086063        0.22513827
 C            0.41210941       -3.65375516       -0.92782162
 C            2.69698392       -2.84737970       -0.54228894
 C            1.71712087       -3.50085540       -1.39569850
 C            2.91067485       -0.42688066       -0.73586539
 C            3.16888672       -1.68980647       -1.26975053
 C            1.67803786        1.64746465       -0.93679265
 C            2.35862318        0.58434637       -1.53643071
 C            0.79466147        2.42192172       -1.70120011
 C            0.25174827        3.70318687        0.31929087
 C            0.11032145        3.47588181       -1.10507861
 C           -1.60703027        3.38716013        1.95025278
 C           -1.04190279        4.12351621        0.83319172
 C           -3.09731811        1.42063652        1.59331557
 C           -2.89285491        2.85922985        1.52833720
 C           -2.90145129       -0.22880902       -0.21106977
 C           -3.44602394        0.96163999        0.26249366
 C           -2.80979656       -0.43264372       -1.59090221
 C           -1.81119977       -2.62003264       -1.13355889
 C           -0.66482884       -3.28558108       -1.73616674
 C           -2.29961906       -1.62875859       -2.07035769
 C           -0.44454530       -2.69350074       -3.05024522
 C           -1.40018131       -1.60573221       -3.21637792
 C            1.95892120       -3.03703752       -2.75086632
 C            2.93706223       -1.96031250       -2.67353625
 C            0.84436627       -2.56663647       -3.54824826
 C            2.22831812        0.41006163       -2.91375679
 C            2.48035165       -0.88380643       -3.51662952
 C            1.24539545       -1.31350294       -4.15597850
 C            0.32533788        1.93106408       -2.92111560
 C           -1.00052834       -0.37837770       -3.75304305
 C            1.05345452        0.94495258       -3.56801101
 C            0.32964654       -0.18838770       -4.12436523
 C           -2.79612783        0.66301294       -2.44586731
 C           -1.03829676        1.99484072       -3.18671409
 C           -1.74848638        0.75543795       -3.44714699
 C           -1.28345039        3.70005063       -1.46015927
 C           -1.99774444        4.08921675       -0.25927348
 C           -3.13336071        3.29157805        0.16371754
 C           -3.49278378        2.12125956       -0.61578698
 C           -1.88829847        2.82415981       -2.35198933
 C           -3.00698531        1.99530804       -1.91029326
