   70
C70 / DATE: 7/ 1/2024 / Origin: Program Fullerene / C70 from database
 C            1.53134172       -0.12948041        5.14173327
 C            0.64313420       -1.26687173        5.22940495
 C            1.12765772       -2.26575287        4.29397698
 C            2.52093933       -0.42110390        4.11549879
 C            2.15940354       -1.66572123        3.47771387
 C            2.61536523        0.74810126        3.28262588
 C            0.74661327        0.99565704        4.66665177
 C            1.54306037        1.65590522        3.66731355
 C           -0.66619651       -0.84192593        4.75717493
 C           -0.55098365        0.50729610        4.25432262
 C           -0.02861052       -2.77772325        3.61029368
 C           -1.12962334       -1.85378401        3.84553743
 C            0.11789645       -3.21865788        2.30748404
 C            2.00118328       -1.69506949        2.08904653
 C            1.14464880       -2.65270006        1.52382886
 C            2.83944193        0.58992386        1.91910545
 C            2.44542979       -0.61397678        1.30511586
 C            2.74481954        1.76268663        1.18462413
 C            0.89398523        2.30157284        2.62903112
 C            1.73198060        2.71153466        1.60950153
 C           -0.97494277        0.78624338        2.95186068
 C           -0.39563625        1.86692245        2.27134253
 C           -1.87314961       -1.47330256        2.73251876
 C           -1.71565986       -0.16645067        2.22950436
 C           -1.08228567       -3.50017100        1.68352811
 C           -2.12754314       -2.50221092        1.83445167
 C           -1.05578582       -3.91907441        0.31049008
 C            1.08990920       -2.77169301        0.12726721
 C            0.13003649       -3.60733632       -0.44986861
 C            2.23869879       -0.65367447       -0.08408215
 C            1.73027466       -1.81710301       -0.67061427
 C            2.69532242        1.70350702       -0.25621175
 C            2.42225343        0.49717804       -0.86819513
 C            1.14598801        3.28312987        0.42954495
 C            1.96699681        2.87563303       -0.69578017
 C           -0.91291016        2.24295372        1.02491222
 C           -0.23030708        3.21728737        0.28707003
 C           -2.07490050        0.12153608        0.90220905
 C           -1.80540143        1.38408686        0.36676411
 C           -2.61233945       -2.19303324        0.51195445
 C           -2.16999546       -3.26755174       -0.35201395
 C           -2.51126478       -0.89253710        0.04564226
 C           -0.33184165       -3.34159099       -1.79680526
 C           -1.71912630       -2.92318595       -1.68051338
 C            1.60404745       -1.88576432       -2.06081959
 C            0.48792011       -2.61640120       -2.64259647
 C            1.97396066        0.52445681       -2.18716360
 C            1.78649479       -0.67867170       -2.85088490
 C            1.35826979        2.86275061       -1.94172645
 C            1.49219219        1.72084782       -2.74481439
 C           -0.73319234        3.60540752       -0.94428978
 C            0.20199414        3.63161966       -2.05410814
 C           -2.21718464        1.68164506       -0.94008330
 C           -1.91233780        2.94258569       -1.44812805
 C           -2.49744845       -0.67287473       -1.33108217
 C           -2.06103853       -1.68447246       -2.20013174
 C           -2.57266499        0.63324713       -1.80354199
 C           -0.13818779       -1.72990464       -3.61160318
 C            0.86512794       -0.74395324       -3.97183463
 C           -1.45470796       -1.31609235       -3.39425760
 C            0.88352061        1.69923439       -4.00365606
 C            0.44477851        0.43376614       -4.56876650
 C           -0.57897847        3.57836151       -3.26841134
 C           -1.92933766        3.18749267       -2.88073702
 C           -0.14050757        2.68533291       -4.31729192
 C           -2.58746644        0.81618813       -3.18815645
 C           -1.90169311       -0.15979877       -4.01462652
 C           -0.97116792        0.56799812       -4.85474224
 C           -2.34335787        2.12304900       -3.76035447
 C           -1.31691151        1.97447776       -4.78115255
