   70
C70 / DATE: 7/ 1/2024 / Origin: Program Fullerene / C70 from database
 C            1.38355174       -0.06380340        4.29882927
 C            2.56601786       -0.18491390        3.46048153
 C            2.41263093       -1.38460681        2.65632075
 C            0.55226289       -1.23542836        4.07353279
 C            1.15821556       -2.02267546        3.02982144
 C           -0.80330973       -0.79018484        3.87977841
 C            0.54122592        1.11674661        4.17661201
 C           -0.80857046        0.66360620        3.89852076
 C            1.02990702        2.22571188        3.50234545
 C            3.09810425        0.95521841        2.87989438
 C            2.41948534        2.22627063        3.08099783
 C            3.53464562        0.90488331        1.49490217
 C            2.78723971       -1.39047759        1.31391201
 C            3.22582667       -0.20772894        0.70517468
 C            2.28990701       -2.42040562        0.52650218
 C            0.36054885       -2.55888421        2.02277031
 C            1.02411592       -3.03467739        0.89989716
 C           -1.60131726       -1.41859274        2.93322335
 C           -0.99752404       -2.19889424        1.92441914
 C           -2.79183943       -0.76416946        2.65261500
 C           -1.58306404        1.32331459        2.94692563
 C           -2.75207537        0.68592642        2.55181176
 C            0.23756515        2.80051196        2.42364212
 C           -0.95231064        2.18750908        2.04744216
 C            2.50384446        2.97457731        1.84295382
 C            3.37540105        2.24222632        0.94477653
 C            1.15104898        3.26947813        1.39908283
 C            3.14332016        2.36467196       -0.41153795
 C            3.18720961       -0.06846478       -0.69123290
 C            3.33649489        1.20041502       -1.24865862
 C            2.32315756       -2.30672088       -0.91540532
 C            2.75453950       -1.12577599       -1.50184309
 C            0.28769726       -3.31226616       -0.31169770
 C            1.13954022       -2.96984186       -1.44060928
 C           -1.72295045       -2.52671122        0.75963656
 C           -1.06466048       -3.02153183       -0.37145434
 C           -3.64260195       -1.26240620        1.60281168
 C           -3.07141714       -2.18369825        0.65167116
 C           -3.35986469        1.04002190        1.28703211
 C           -4.13292386       -0.11326075        0.85939827
 C           -1.33390372        2.19265888        0.69994363
 C           -2.60786137        1.73655442        0.34748933
 C            0.83911027        3.07189828        0.05815216
 C            1.89176057        2.96772501       -0.84699107
 C           -0.41219461        2.55858626       -0.29486193
 C            2.67454149        1.50556173       -2.49828298
 C            1.63432826        2.47825870       -2.18709683
 C            2.41451079       -0.89491053       -2.83645693
 C            2.37326606        0.46330222       -3.35588484
 C            0.56355032       -2.49990087       -2.61778885
 C            1.30124377       -1.63155855       -3.42075980
 C           -1.65474317       -2.91019826       -1.62846894
 C           -0.82139627       -2.59085649       -2.77828081
 C           -3.61377870       -1.82698331       -0.64729368
 C           -4.13010037       -0.46846886       -0.54579076
 C           -2.91784177       -2.20980317       -1.78320764
 C           -2.96668310        1.64624736       -0.99457811
 C           -3.71591183        0.48648884       -1.46450826
 C           -0.70566632        2.33022683       -1.64462739
 C            0.32671099        2.21985062       -2.58141973
 C           -2.00149291        1.99488781       -2.01749207
 C            1.18717797        0.58301879       -4.18302848
 C            0.61225187       -0.74071525       -4.33700675
 C            0.12905709        1.47296805       -3.74214129
 C           -1.53815463       -1.60994593       -3.58483859
 C           -2.77069658       -1.27655115       -2.88979066
 C           -3.12418026        0.05800845       -2.71909903
 C           -2.21204341        1.10530242       -3.14765287
 C           -0.82847939       -0.61203473       -4.23741585
 C           -1.13145566        0.78541361       -3.95611700
