   70
C70 / DATE: 7/ 1/2024 / Origin: Program Fullerene / C70 from database
 C            1.25595803        0.01337722        4.37623650
 C            2.52918603       -0.21108559        3.72910985
 C            2.58866999       -1.61862081        3.39489387
 C            0.42638574       -1.16494799        4.15631014
 C            1.23514104       -2.14311417        3.47202291
 C           -0.79972776       -0.72445494        3.52664669
 C            0.47847850        1.15510482        3.95659655
 C           -0.88630519        0.70003201        3.76667697
 C            1.00007628        2.03221496        3.00920092
 C            2.83209633        0.53826913        2.52135319
 C            1.96315039        1.55230418        2.10978160
 C            3.28788011       -1.74080790        2.12869761
 C            3.33466549       -0.40967637        1.53832178
 C            2.93779847       -2.80485990        1.31448520
 C            0.73210838       -2.78749254        2.34900805
 C            1.67037478       -3.46542246        1.58192284
 C           -1.12662365       -1.20547924        2.26420321
 C           -0.43534853       -2.30007950        1.72572247
 C           -1.92726659       -0.41405401        1.43771061
 C           -1.68795732        1.47176490        2.94131079
 C           -2.36131568        0.84223094        1.88738783
 C            0.13798457        3.03511554        2.58825804
 C           -1.28079527        2.79207915        2.77263221
 C            0.27891393        3.57190887        1.25117135
 C            1.82355831        1.81214402        0.73851244
 C            0.95589056        2.81849873        0.30359026
 C            2.98189620       -0.23387605        0.20341926
 C            2.47613858        0.99989842       -0.19415186
 C            2.98923316       -2.62321620       -0.12079660
 C            2.84894155       -1.34165771       -0.64411283
 C            1.25094275       -4.09927178        0.35897157
 C            2.18851952       -3.68906355       -0.67782627
 C           -0.81518563       -2.79016815        0.46773218
 C           -0.07482097       -3.80941831       -0.13372848
 C           -2.23536350       -0.85253073        0.14537012
 C           -1.73930278       -2.07910658       -0.30667697
 C           -2.93780076       -0.02231533       -0.73751668
 C           -3.20540589        1.60360411        1.08184221
 C           -3.44475398        1.19268599       -0.28842703
 C           -1.98876527        3.64011493        1.84197279
 C           -1.00134580        4.15426557        0.90122183
 C           -3.06632622        3.05105181        1.07825780
 C           -3.30726383        2.36747543       -1.14104584
 C           -1.51714582        3.94013781       -0.43363806
 C           -2.88407971        3.46618776       -0.29725465
 C            0.56855965        2.87822419       -1.03986762
 C           -0.70791162        3.33972610       -1.39456643
 C            2.32479466        1.24853605       -1.55078364
 C            1.35414981        2.23375173       -1.99017470
 C            2.31420620       -1.17080187       -1.92846166
 C            2.26636107        0.11708452       -2.45921102
 C            1.40859850       -3.41121613       -1.86223394
 C            0.04524817       -3.83174885       -1.57523983
 C            1.60432676       -2.21413193       -2.54790130
 C           -1.95965450       -2.45719499       -1.63400692
 C           -0.97350497       -3.27540030       -2.32391530
 C           -2.81111754       -0.21808273       -2.11246982
 C           -2.44198218       -1.46949088       -2.58202283
 C           -2.66349446        2.21362494       -2.35817423
 C           -1.34120749        2.80470286       -2.51564975
 C           -2.59391841        0.88728458       -2.93285652
 C            0.75163280        1.74651009       -3.21980465
 C            1.32017437        0.43976802       -3.51233984
 C           -0.59551691        1.98041071       -3.45176560
 C           -1.46314822        0.88130689       -3.84570701
 C            0.70625974       -1.92970386       -3.57545097
 C           -0.60009328       -2.56445104       -3.53238107
 C           -1.59907983       -1.54313434       -3.76488697
 C            0.51785953       -0.56432971       -4.03312125
 C           -0.91263040       -0.34099054       -4.20238352
