   70
C70 / DATE: 7/ 1/2024 / Origin: Program Fullerene / C70 from database
 C            1.45494237        0.13272188        4.79489912
 C            0.69794801       -1.09122812        4.61245059
 C            1.43505604       -1.94243019        3.69366219
 C            2.66248906        0.02205834        3.99691741
 C            2.74552799       -1.33969972        3.50458782
 C            2.66743208        1.10220385        3.02406072
 C            0.66137331        1.21816756        4.24865693
 C            1.42801524        1.84312638        3.19287481
 C           -0.65720592       -0.71924665        4.25998444
 C           -0.65002487        0.69637594        3.91836383
 C           -1.36618961       -1.57884035        3.44109652
 C            0.75683709       -2.49661295        2.60296495
 C           -0.63106760       -2.56155732        2.65109935
 C            1.41834650       -2.65470302        1.37920918
 C            3.39313728       -1.54443823        2.30106335
 C            2.79872568       -2.45903130        1.34923299
 C            3.12606341        0.82876882        1.73152000
 C            3.79188736       -0.37909705        1.52683727
 C            2.54266718        1.50245330        0.64342759
 C            0.76659005        2.25953103        2.05299431
 C            1.51757440        2.41740951        0.90062951
 C           -1.25283704        1.10914460        2.72850813
 C           -0.61381923        2.06246305        1.93133912
 C           -2.36579030       -1.01562491        2.56071477
 C           -2.25393921        0.31806267        2.16557358
 C           -1.37938189       -2.77869872        1.42815125
 C           -2.61530380       -2.02510096        1.55417641
 C            0.68765154       -2.72162314        0.17465399
 C           -0.71488469       -2.78507806        0.20618196
 C            1.35699387       -2.69187803       -1.06160202
 C            3.45415314       -2.18783636        0.09113884
 C            4.02231749       -0.84853422        0.18026481
 C            2.66968215       -2.24111486       -1.11579785
 C            2.77637723        1.07994415       -0.67819488
 C            3.49383543       -0.08110749       -0.92502345
 C            2.94742557       -1.03030209       -1.86945802
 C            1.99097099        1.58921880       -1.71378205
 C            0.94116942        3.12091462       -0.14188202
 C            1.30474945        2.77721482       -1.49778910
 C           -1.24530688        2.51738822        0.77212045
 C           -0.49845155        3.29431757       -0.11466144
 C           -2.84363485        0.71134872        0.96307933
 C           -2.40369195        1.87433396        0.32225651
 C           -3.27171604       -1.63582168        0.40411125
 C           -3.58422245       -0.22921475        0.24625896
 C           -1.45969998       -2.58147757       -0.95986291
 C           -2.75764118       -2.08412341       -0.87590857
 C            0.62354603       -2.55581077       -2.23408659
 C           -0.82208413       -2.55821265       -2.18835301
 C            1.98188043       -0.59379665       -2.76650863
 C            1.64958878        0.76431945       -2.79766944
 C            1.03096078       -1.52477690       -3.17498311
 C            0.71832992        1.20072953       -3.74289523
 C            0.19005240        3.14304505       -2.35164112
 C           -0.93969200        3.46733682       -1.48503964
 C           -0.01124293        2.43933759       -3.52918442
 C           -2.97628091        2.24576328       -0.89875245
 C           -2.22235633        3.06976135       -1.82985584
 C           -3.83745451       -0.01964454       -1.16442731
 C           -3.22535228       -1.13578358       -1.87718428
 C           -3.70915166        1.25865836       -1.67674279
 C           -1.30797242       -1.66441569       -3.23345505
 C           -0.14760992       -1.07857241       -3.89213433
 C           -0.20375671        0.23665941       -4.32500016
 C           -2.44996289       -0.89220534       -3.01067233
 C           -1.36093829        2.25944361       -4.03414511
 C           -2.48323588        2.58704398       -3.17428606
 C           -3.31860905        1.40392256       -3.06534341
 C           -1.50187685        0.87080543       -4.43951045
 C           -2.62191189        0.30364547       -3.70922915
