   70
C70 / DATE: 7/ 1/2024 / Origin: Program Fullerene / C70 from database
 C            1.19052103        0.13479620        4.89494821
 C            2.50135710        0.00727174        4.29394779
 C            2.61932705       -1.35951768        3.83028541
 C            0.40883463       -1.03464633        4.50210809
 C            1.26979388       -1.89137030        3.72642766
 C           -0.81985121       -0.56510364        3.90013606
 C            0.40554114        1.30181707        4.56410824
 C           -0.93016993        0.82896811        4.25718268
 C            0.82173085        2.13500055        3.44555885
 C            2.84263608        0.86067650        3.16788724
 C            1.88209345        1.73069532        2.64307377
 C            3.44150879       -1.34212332        2.63207586
 C            3.65026049        0.05528502        2.26940251
 C            3.13544490       -2.25541068        1.63439168
 C            0.84287930       -2.35791719        2.48863068
 C            1.82064913       -2.87900709        1.65532670
 C           -1.13912496       -0.93715822        2.59153329
 C           -0.36067451       -1.89368564        1.92324942
 C           -2.03010942       -0.13797179        1.86013071
 C           -1.46377067        1.71650694        3.26079485
 C           -0.39249150        2.59503195        2.81473381
 C           -2.27032673        1.18549315        2.27176355
 C           -0.38406511        2.94084337        1.46675823
 C            1.83644572        1.97203176        1.26384492
 C            0.68327887        2.50905891        0.66487278
 C            3.71140868        0.41446409        0.93028312
 C            2.86954551        1.50029331        0.45883506
 C            3.43279137       -1.92873919        0.25063079
 C            3.71063026       -0.61751349       -0.09696748
 C            1.47767249       -3.22085160        0.30239850
 C            2.51256908       -2.69036254       -0.56864210
 C           -0.69764373       -2.26052302        0.60897996
 C            0.16156502       -3.10308945       -0.11376224
 C           -2.41549790       -0.53825086        0.57287375
 C           -1.75785407       -1.61081490       -0.04816286
 C           -3.27008182        0.28596228       -0.17193225
 C           -2.65258236        2.10208755        1.31323320
 C           -1.63973156        3.05297929        0.88413001
 C           -3.33277095        1.63644038        0.13649938
 C           -1.75663079        3.18292413       -0.54927307
 C           -3.04618423        2.60887846       -0.90059875
 C            0.52178441        2.43178690       -0.73400455
 C           -0.65171793        2.90230709       -1.34108497
 C            2.62566618        1.27725313       -0.95001203
 C            3.09111786       -0.05670841       -1.28562075
 C            1.43636656        1.70969528       -1.50717802
 C            2.11233215       -2.21280629       -1.81045155
 C            2.29274452       -0.85138467       -2.11114972
 C           -0.04620414       -3.27790720       -1.47319765
 C            1.02842604       -2.87840501       -2.37146613
 C           -2.12084125       -1.99795379       -1.34751200
 C           -1.28934214       -2.84991845       -2.06364256
 C           -3.67394047       -0.10016993       -1.44211081
 C           -3.06473055       -1.25798503       -2.05704907
 C           -3.28080668        2.24946195       -2.21617175
 C           -3.82293943        0.92430960       -2.46847795
 C           -0.86273852        2.66990680       -2.70192984
 C           -2.22424175        2.48422561       -3.18401088
 C            1.01202988        1.11359708       -2.68907694
 C            1.39023262       -0.20496499       -2.96788743
 C           -0.01760479        1.71698043       -3.39753172
 C            0.42739312       -2.35368160       -3.57385012
 C           -1.00631722       -2.54966934       -3.45649638
 C            0.64791642       -0.96048427       -3.87333408
 C           -2.82391729       -0.94578484       -3.46303045
 C           -3.23085554        0.42552078       -3.69523183
 C           -2.22563755        1.37838702       -4.12627874
 C           -0.85571184        0.92103656       -4.27978769
 C           -1.65307368       -1.40044055       -4.05247876
 C           -0.60431234       -0.43965297       -4.39164366
