   70
C70 / DATE: 7/ 1/2024 / Origin: Program Fullerene / C70 from database
 C            1.10589424        0.06643105        4.46531329
 C            2.39762198       -0.15563062        3.85723937
 C            2.43855311       -1.54126953        3.43157458
 C            0.29749407       -1.12559160        4.24627692
 C            1.07657916       -2.04575331        3.45464639
 C           -0.98429202       -0.70032120        3.73774119
 C            0.32588419        1.20200104        4.02321142
 C           -1.04039368        0.74907039        3.83685825
 C            0.85323709        2.09392457        3.09747553
 C            2.77706537        0.66007603        2.71915761
 C            1.95974138        1.71475814        2.31608766
 C            3.16090552       -1.59563048        2.17599493
 C            3.31850651       -0.22782009        1.70299862
 C            2.77798650       -2.56022777        1.26234803
 C            0.54685519       -2.56723301        2.27599128
 C            1.44953881       -3.14571635        1.39327781
 C           -1.51204681       -1.30712221        2.60573555
 C           -0.69025158       -2.10463328        1.78964728
 C           -2.63873188       -0.70947768        2.06514501
 C           -1.86504412        1.44925534        2.95617751
 C           -2.81215324        0.72887502        2.22714468
 C           -0.02703939        3.04975677        2.60663123
 C           -1.43277266        2.69033153        2.47639610
 C            0.34639435        3.83075974        1.44680257
 C            2.07850447        2.17576569        1.00171385
 C            1.43327666        3.34958758        0.62521289
 C            3.07986633        0.06892753        0.36086350
 C            2.64510341        1.35032883        0.02415065
 C            2.96358124       -2.28708219       -0.14584225
 C            2.99945692       -0.96546245       -0.58367854
 C            1.01381235       -3.52196895        0.06852755
 C            2.11474772       -3.23025904       -0.83881766
 C           -1.08331270       -2.40475679        0.46756824
 C           -0.28511842       -3.23472893       -0.33194173
 C           -3.07491080       -1.06461306        0.73411654
 C           -2.26170270       -1.85792906       -0.06390547
 C           -3.29051205        1.24884016        0.95867744
 C           -3.70380547        0.11117737        0.15754070
 C           -1.88640347        3.16176658        1.17522463
 C           -0.82581803        3.95767990        0.59487227
 C           -2.60912125        2.30243262        0.35981592
 C            1.03128408        3.53055127       -0.75695222
 C           -0.41442208        3.67491102       -0.76538636
 C            2.54547553        1.69639820       -1.31782449
 C            1.62343930        2.74196526       -1.72779721
 C            2.64970715       -0.68105536       -1.91041383
 C            2.48710391        0.64046665       -2.31073714
 C            1.82354681       -2.99705405       -2.16958560
 C            2.13635861       -1.68938716       -2.72929755
 C           -0.58683304       -3.39241395       -1.68204130
 C            0.50416535       -3.36690378       -2.64215461
 C           -2.49481530       -1.87854916       -1.44206287
 C           -1.69329238       -2.66101215       -2.26313947
 C           -3.72271881        0.24069915       -1.21923724
 C           -3.27712211       -0.88048114       -2.02392356
 C           -2.36515291        2.27042598       -1.01796344
 C           -1.17384634        2.80089401       -1.53876217
 C           -3.15279159        1.44009863       -1.81074764
 C            0.79645438        2.19568249       -2.78878961
 C            1.42852823        0.97310764       -3.25436835
 C           -0.58916060        2.23951551       -2.68023109
 C            1.09977173       -1.35933596       -3.69854041
 C            0.14268932       -2.45033902       -3.70571146
 C           -1.26060150       -2.13677109       -3.55518494
 C            0.63975996       -0.04576431       -3.78434913
 C           -2.87967211       -0.34055743       -3.30968743
 C           -2.69621153        1.09127267       -3.14138178
 C           -1.33360698        1.40988583       -3.50759761
 C           -1.69085595       -0.87739824       -3.94118725
 C           -0.71435743        0.20263023       -4.03891555
