   70
C70 / DATE: 7/ 1/2024 / Origin: Program Fullerene / C70 from database
 C            1.53450609       -0.03449776        4.52978835
 C            0.73450580       -1.18997095        4.15835531
 C            1.50116723       -1.96586010        3.20267169
 C            2.69999117       -0.02135907        3.67002583
 C            2.80944341       -1.33853535        3.07999898
 C            2.59612228        1.11820605        2.77031854
 C            0.75782727        1.14776280        4.22216094
 C            1.42803434        1.87831116        3.16040265
 C           -0.57783227       -0.71215088        3.76535093
 C           -0.60726335        0.72480654        3.97855629
 C           -1.16169030       -1.21922748        2.60665643
 C            0.86575591       -2.43284115        2.05191816
 C           -0.51017893       -2.23433089        1.89874387
 C            1.64392212       -2.79837468        0.94604093
 C            3.44977463       -1.42700223        1.85960513
 C            2.98370713       -2.41838306        0.91530508
 C            2.86673661        0.91462447        1.42011735
 C            3.62362157       -0.20315287        1.08846503
 C            2.03775379        1.49452957        0.44780706
 C            0.62461315        2.43862682        2.18082046
 C            1.00392581        2.35970079        0.83688791
 C           -1.35710249        1.48336102        3.09469156
 C           -0.72803326        2.56218388        2.47307043
 C           -2.16770129       -0.47136813        1.98046362
 C           -2.38007228        0.84503642        2.40121918
 C           -2.72497375       -0.92589659        0.77860429
 C           -1.15382832       -2.81264425        0.81753985
 C           -2.32644035       -2.15846581        0.26613791
 C            1.02709889       -3.22589733       -0.23631902
 C           -0.36053812       -3.32030032       -0.28764493
 C            1.73736126       -3.21104856       -1.44131508
 C            3.57424826       -2.04252631       -0.34762868
 C            3.73950679       -0.59559802       -0.29636428
 C            3.05832550       -2.59952498       -1.50222809
 C            2.18099636        1.13839146       -0.90554789
 C            3.14025852        0.17878045       -1.28035942
 C            1.29610352        1.67334663       -1.85608738
 C            0.12919421        2.87448145       -0.12552895
 C            0.16398476        2.36450536       -1.42600096
 C           -1.49040682        3.36351854        1.64285432
 C           -0.98104159        3.60437486        0.30446636
 C           -3.28042974        1.65217765        1.71928693
 C           -2.89698114        3.03751623        1.51423829
 C           -3.48461538       -0.06442552       -0.01890548
 C           -3.87265602        1.17235740        0.48563654
 C           -3.53130524       -0.26264381       -1.40105122
 C           -2.31704382       -2.37092527       -1.17131489
 C           -1.04829363       -2.97861437       -1.52313442
 C           -2.84946960       -1.39986862       -1.99672097
 C            1.03491428       -2.87221100       -2.67197536
 C           -0.30637984       -2.49651837       -2.59972709
 C            3.11181793       -1.79890255       -2.70995423
 C            3.13722633       -0.35321207       -2.56645173
 C            1.95612866       -2.13824649       -3.51700478
 C            1.30156343        1.20187254       -3.16573486
 C            2.25174334        0.18958474       -3.56485407
 C            1.49924240       -0.91996049       -4.13978581
 C           -2.06283642       -0.90940017       -3.11663741
 C           -0.79029423       -1.42101601       -3.36563970
 C            0.03526689        0.84514223       -3.76967319
 C            0.09822044       -0.57937600       -4.03657836
 C           -0.99712155        2.33057292       -2.21884914
 C           -3.34615549        0.87346586       -2.29228188
 C           -1.11964701        1.34944311       -3.19848875
 C           -2.24684210        0.53289740       -3.17734046
 C           -2.12372379        3.74317318       -0.57561045
 C           -3.32148197        3.44262912        0.19101160
 C           -3.96117237        2.29905741       -0.43001936
 C           -2.16375667        2.93992806       -1.77552434
 C           -3.38730100        2.14991137       -1.75093513
