   70
C70 / DATE: 7/ 1/2024 / Origin: Program Fullerene / C70 from database
 C            1.46033749        0.22476276        5.09091306
 C            0.68738064       -0.97581486        4.83509741
 C            1.58080277       -1.93344308        4.22434453
 C            2.68660320        0.12907146        4.31361383
 C            2.78426521       -1.22365172        3.81659583
 C            2.68380578        1.21904091        3.35743006
 C            0.70662148        1.35067715        4.57408925
 C            1.59436895        2.11019876        3.71693200
 C           -0.51561642       -0.59774788        4.10827797
 C           -0.53078714        0.85018911        3.99743741
 C           -0.91875046       -1.35444947        3.00955492
 C            1.09982755       -2.65474279        3.06795531
 C           -0.23301323       -2.53704060        2.69693759
 C            2.94610989       -1.43102596        2.38917099
 C            2.09562831       -2.54025863        2.01619710
 C            2.92120382        0.96982639        2.00410649
 C            3.01298157       -0.34862242        1.52563848
 C            2.65945555        1.99948365        1.09668011
 C            1.01520045        2.85680191        2.70530053
 C            1.71057767        2.96212300        1.43386106
 C           -0.98615859        1.43051487        2.81616910
 C           -0.38208152        2.60961483        2.38326235
 C           -1.71047007       -0.74093242        2.03067927
 C           -1.68006400        0.64800025        1.88884840
 C           -2.26992284       -1.52128567        1.01770070
 C           -0.57786589       -3.19799880        1.53183592
 C           -1.78468668       -2.81283585        0.83989628
 C            1.64697534       -2.64731449        0.69796647
 C            0.45432682       -3.33564378        0.51402209
 C            2.82000737       -0.59339240        0.17014209
 C            1.99977658       -1.65733496       -0.23286570
 C            2.94362344        1.79459756       -0.24818083
 C            3.10515922        0.43112075       -0.71409091
 C            2.16064092        2.49591296       -1.25264092
 C            0.71557605        3.35239798        0.44753499
 C           -0.58295709        3.04781187        1.01686822
 C            0.93418004        3.05101147       -0.89368664
 C           -2.10703607        1.21998600        0.69011410
 C           -1.49381251        2.38381886        0.21781774
 C           -2.96250232       -0.91507459       -0.03710964
 C           -2.90711555        0.47944820       -0.18055960
 C           -3.33827181       -1.72322691       -1.11615159
 C           -1.63281011       -3.32437624       -0.50557357
 C           -0.20578251       -3.29750508       -0.77262021
 C           -2.48244053       -2.83622169       -1.47548945
 C            1.37281100       -1.62028895       -1.49377646
 C            0.27099244       -2.44753462       -1.76256548
 C            2.61417741        0.36309045       -2.07376872
 C            2.26006010        1.71798702       -2.47329058
 C            1.79866520       -0.69735900       -2.45740166
 C            1.29164079        1.88614348       -3.44810785
 C           -0.17096004        2.85281344       -1.73013592
 C           -1.42101122        2.59526821       -1.15273551
 C            0.05283216        2.54954416       -3.07376355
 C           -3.31503765        1.09298484       -1.36872096
 C           -2.47811559        2.13881526       -1.92666394
 C           -3.77837403       -1.13291403       -2.36539996
 C           -3.82145933        0.30377408       -2.47187523
 C           -1.91964037       -2.49508608       -2.76647571
 C           -0.56391447       -2.17467047       -2.84959447
 C           -2.89498244       -1.63454072       -3.41071786
 C            1.11122500       -0.58890245       -3.66440034
 C            0.93566664        0.73091200       -4.24765936
 C           -0.12730313       -1.31880363       -3.85238136
 C           -1.01460604        1.98511414       -3.88339898
 C           -2.28373360        1.85724269       -3.33799414
 C           -3.08340674        0.68594949       -3.66578610
 C           -2.42487795       -0.50321381       -4.18515252
 C           -0.45576184        0.87162706       -4.63250618
 C           -1.07817710       -0.43442297       -4.51974975
