   70
C70 / DATE: 7/ 1/2024 / Origin: Program Fullerene / C70 from database
 C            1.54148108       -0.04717542        4.61626069
 C            0.72555699       -1.24434774        4.56370651
 C            1.19422522       -2.06965335        3.46305939
 C            2.55312427       -0.16257744        3.58521331
 C            2.35930438       -1.42180975        2.89066588
 C            2.51332373        1.05033797        2.79137090
 C            0.68922990        1.07674939        4.26575693
 C            1.27457146        1.73336380        3.11872354
 C           -0.65813791       -0.82108838        4.55024454
 C           -0.66500865        0.58417464        4.15396327
 C           -1.57899541       -1.67034923        3.95857836
 C            0.25018306       -2.64010039        2.61486803
 C           -1.08440956       -2.68247411        3.03217218
 C            0.55891913       -2.81615563        1.26214036
 C            2.52257450       -1.41603260        1.51265653
 C            1.68821534       -2.19955094        0.71022274
 C            2.85087419        0.95142206        1.44755563
 C            3.14884496       -0.31130116        0.94063264
 C            2.32230325        1.89386052        0.56890999
 C            0.45743424        2.12782547        2.06637717
 C            1.07531808        2.45666331        0.86580229
 C           -1.44905585        0.98087702        3.06971956
 C           -0.89303008        1.75811533        2.03893390
 C           -2.74602470       -1.07231553        3.34412522
 C           -2.62912890        0.28181272        2.83481531
 C           -2.13970597       -2.94665684        2.06738264
 C           -3.15725041       -1.92830549        2.24533758
 C           -0.38904135       -3.38691454        0.41878167
 C           -1.79484586       -3.31351300        0.77701069
 C           -0.29511123       -3.17033830       -1.01512425
 C            1.85580161       -2.14986596       -0.67962587
 C            0.78297004       -2.45638219       -1.52606184
 C            3.53680938       -0.40393503       -0.38521003
 C            2.96083319       -1.46907152       -1.18418329
 C            2.78927966        1.90205377       -0.74664289
 C            3.51313681        0.79920412       -1.19903507
 C            2.20678009        2.77160873       -1.66811325
 C            0.30839945        3.00500033       -0.15363043
 C            0.96803648        3.43119777       -1.30342232
 C           -1.62235373        1.97654602        0.86230597
 C           -1.07163214        2.76222745       -0.15815354
 C           -3.21739977        0.29728793        1.51229714
 C           -3.49243840       -1.07330492        1.12092172
 C           -2.70566829        1.14971947        0.55217223
 C           -2.48388174       -2.69243208       -0.34335272
 C           -1.63556721       -2.88774058       -1.50553373
 C           -3.14320704       -1.47208516       -0.16713613
 C           -1.78589902       -2.03827933       -2.58751518
 C            0.65903575       -1.83661719       -2.77804389
 C           -0.60448686       -1.60854845       -3.31195496
 C            2.95364857       -1.02120036       -2.56139831
 C            3.37617817        0.37033578       -2.57766987
 C            1.72202450       -1.11949417       -3.31064899
 C            2.10206273        2.38435302       -3.07105576
 C            2.48007838        1.10496235       -3.44653844
 C            1.46186267        0.17664596       -3.92246546
 C            0.23042342        3.68822315       -2.52240594
 C            0.85101462        2.90850946       -3.58107299
 C           -1.81063437        2.90908279       -1.33480541
 C           -1.18565385        3.40908768       -2.54247359
 C           -2.96163095        0.84932173       -0.77998791
 C           -3.04561365       -0.49448090       -1.16223870
 C           -2.64183290       -0.87671048       -2.43990975
 C           -2.70327669        1.83498082       -1.72228436
 C           -0.89506386       -0.31234096       -3.90541238
 C            0.14147936        0.60741976       -4.07884475
 C           -0.14264890        1.97446580       -4.07916644
 C           -1.43204194        2.43659575       -3.59674718
 C           -2.18494516        0.12574665       -3.38618997
 C           -2.37971626        1.46337061       -3.08862892
