   70
C70 / DATE: 7/ 1/2024 / Origin: Program Fullerene / C70 from database
 C            1.21331902        0.02203879        4.27648989
 C            2.50685970       -0.36853913        3.76270897
 C            2.42254072       -1.76478994        3.36207709
 C            0.37256898       -1.16265190        4.27209065
 C            1.02893729       -2.16255295        3.46171208
 C           -0.95049934       -0.74646316        3.88390850
 C            0.48025340        1.07361311        3.59223250
 C           -0.91275923        0.67701158        3.58919199
 C            1.01395215        1.65269975        2.44629365
 C            3.05008206        0.36706169        2.64279452
 C            2.36849336        1.46925275        2.13418445
 C            3.10135684       -1.90401153        2.08560390
 C            3.60290539       -0.59427064        1.70345345
 C            2.52887088       -2.70672726        1.11609167
 C            0.37707422       -2.65110316        2.32878634
 C            1.14647384       -3.14167803        1.27273684
 C           -1.68161586       -1.54836532        3.02481310
 C           -0.98643395       -2.37709293        2.12363527
 C           -2.89692975       -1.01145660        2.63097893
 C           -1.76195708        1.14932049        2.59052468
 C           -2.92990364        0.41866026        2.36328211
 C            0.14477195        2.20328022        1.49864036
 C           -1.22815971        1.90655444        1.54070559
 C            0.66727535        2.96463076        0.44870941
 C            2.86408168        2.00640644        0.95566416
 C            2.01526728        2.84795288        0.13856030
 C            3.66758638       -0.23159143        0.35731615
 C            3.61057478        1.13173827        0.06545429
 C            2.73146061       -2.37107054       -0.27966105
 C            3.34147124       -1.16815738       -0.63501170
 C            0.56394128       -3.24228541       -0.05250309
 C            1.55696473       -2.80651860       -1.01734161
 C           -1.56740354       -2.70128185        0.88662785
 C           -0.75447040       -2.87079438       -0.23378643
 C           -3.65669721       -1.67970966        1.60299257
 C           -2.93830391       -2.55244219        0.70446474
 C           -3.67822035        0.61588337        1.13455777
 C           -4.30101988       -0.65417001        0.80253750
 C           -2.03521896        2.21510699        0.44375090
 C           -3.12035965        1.39360461        0.12503348
 C           -0.18187776        3.47064352       -0.52868600
 C           -1.59486855        3.15230494       -0.47727795
 C            0.24020851        3.41811475       -1.92227654
 C            2.40671530        2.66050608       -1.25010830
 C            3.38824648        1.58341401       -1.29404875
 C            1.43603010        2.77938782       -2.24381035
 C            3.22239058       -0.75965358       -1.96387541
 C            3.33662272        0.64684324       -2.30949971
 C            1.16438159       -2.07157214       -2.13151869
 C            2.14574256       -1.31958164       -2.76644925
 C           -1.14155865       -2.34252756       -1.46528860
 C           -0.18880514       -1.73567264       -2.28732391
 C           -3.44186415       -2.29631622       -0.63263099
 C           -4.26911819       -1.09992660       -0.57192013
 C           -2.48753924       -2.11792030       -1.71382313
 C           -3.42103588        1.11323666       -1.21780607
 C           -3.77315052       -0.18382999       -1.57577827
 C           -2.86545815       -0.92041424       -2.43591227
 C           -2.07786427        3.05861110       -1.83781493
 C           -0.93794157        3.17161568       -2.73225166
 C           -2.82495830        1.87736658       -2.21273661
 C           -0.58807300       -0.72718642       -3.18284953
 C           -1.88109742       -0.20214103       -3.10544384
 C           -0.94573723        2.02594548       -3.62210274
 C           -2.06192290        1.17706267       -3.23511062
 C            1.49279661        1.96242718       -3.37621712
 C            2.47740100        0.89655942       -3.45041966
 C            1.76630655       -0.33667018       -3.75365591
 C            0.26381874        1.43457354       -3.95155946
 C            0.36507951       -0.01229250       -3.90210538
