   70
C70 / DATE: 7/ 1/2024 / Origin: Program Fullerene / C70 from database
 C            1.23626138       -0.09935488        4.42258538
 C            2.49604523       -0.37870951        3.78280874
 C            2.41119363       -1.71308453        3.20454122
 C            0.39298043       -1.27446299        4.25837549
 C            1.01925518       -2.11083033        3.26110896
 C           -0.94750417       -0.79461305        4.00647168
 C            0.46201993        1.02984763        3.95309524
 C           -0.91480981        0.64997767        4.18062170
 C            0.79572731        1.64931244        2.74449547
 C            2.93540879        0.49775088        2.71991523
 C            2.04137425        1.41091888        2.14785241
 C            3.06387836       -1.65035354        1.90661985
 C            3.70947335       -0.35162999        1.84110122
 C            2.38363170       -2.11180322        0.77932991
 C            0.35338487       -2.35108923        2.06562769
 C            1.10591961       -2.65647753        0.93261972
 C           -1.67341088       -1.31704976        2.93870346
 C           -1.00657429       -2.03036947        1.93055352
 C           -2.88048963       -0.69633901        2.64237599
 C           -1.90562666        1.39747728        3.57243919
 C           -3.06073968        0.68424306        3.06072644
 C           -0.21343124        2.28376921        2.01430424
 C           -1.50832351        2.34463127        2.54329269
 C            0.00793887        2.64077962        0.68127259
 C            2.27685451        1.83226795        0.83482714
 C            1.20875360        2.29878379        0.05557215
 C            4.02886426        0.14561264        0.59615132
 C            3.46429974        1.42783278        0.22462709
 C            2.80098480       -1.67072477       -0.48272643
 C            3.80810092       -0.70975316       -0.55170550
 C            2.02509671       -1.96173520       -1.61378698
 C            0.45835244       -3.17606816       -0.17374783
 C            0.99239140       -2.88937714       -1.49165140
 C           -1.66242551       -2.32896660        0.72774857
 C           -0.98776478       -3.07112567       -0.24265488
 C           -3.45069796       -0.83070365        1.31835039
 C           -2.86012353       -1.68417672        0.39711162
 C           -3.57530522        1.43402486        1.93054170
 C           -2.64697476        2.51169646        1.65449364
 C           -3.87576388        0.48952856        0.87222104
 C           -1.05212111        3.11162942       -0.08772188
 C           -2.41528918        2.85425949        0.33504530
 C           -1.01587621        2.93646936       -1.52367142
 C            1.31965609        2.39897494       -1.34506026
 C            0.17442074        2.56568399       -2.12856771
 C            3.60172322        1.51625235       -1.21106216
 C            3.87074831        0.16679268       -1.69700199
 C            2.49957350        2.03578519       -1.98508999
 C            2.13706492       -1.18930460       -2.78231016
 C            2.97527647       -0.07652806       -2.80325127
 C            2.41861874        1.21279822       -3.17535797
 C            1.14469630       -1.25834606       -3.76015065
 C           -0.12254417       -2.86670146       -2.42040485
 C           -1.35104131       -2.93979093       -1.64344681
 C           -0.05500035       -2.04496821       -3.53454696
 C           -3.20172520       -1.50290667       -0.94041467
 C           -2.43549173       -2.14863433       -1.98895163
 C           -3.64240385        0.85238426       -0.45162180
 C           -3.05882018        2.09041091       -0.72815029
 C           -2.24264997        2.25886863       -1.92005870
 C           -3.55460373       -0.16681096       -1.39412927
 C           -1.20383432       -1.23150919       -3.90975916
 C           -2.32939934       -1.21454029       -3.09862680
 C           -2.17380853        1.24651161       -2.87229981
 C           -2.88254156        0.06283276       -2.66298588
 C            0.10744336        1.97250608       -3.38977008
 C            1.24595578        1.23169369       -3.91159420
 C            0.74421116       -0.03046998       -4.42685603
 C           -1.10385511        1.25879951       -3.76392929
 C           -0.70660851        0.02820074       -4.42446332
