   70
C70 / DATE: 7/ 1/2024 / Origin: Program Fullerene / C70 from database
 C            1.41588495        0.06291976        4.78763670
 C            0.67825729       -1.16371268        4.58042770
 C            1.30949719       -1.90569981        3.49811387
 C            2.59054717        0.00282865        3.94591687
 C            2.49834782       -1.18270132        3.10591231
 C            2.68971061        1.28254395        3.28065429
 C            0.58712676        1.15117810        4.29101537
 C            1.34300873        1.83518714        3.26281927
 C           -0.70899035       -0.79067284        4.41007419
 C           -0.70134905        0.58923883        3.94561788
 C           -1.50619799       -1.68366882        3.72281061
 C            0.48104770       -2.45351711        2.52642565
 C           -0.83605008       -2.68992416        2.91172492
 C            0.77175372       -2.24098215        1.16643994
 C            2.81057909       -1.04447509        1.75870313
 C            1.96177989       -1.59282009        0.78458384
 C            3.39449730        1.30735107        2.09546754
 C            3.61337124        0.03766577        1.41705303
 C            2.93565790        2.20313479        1.06045442
 C            0.74411941        2.09903247        2.02913547
 C            1.56842956        2.45154618        0.95586438
 C           -1.26507598        0.87914075        2.70262831
 C           -0.56759483        1.67319493        1.77834175
 C           -2.54287142       -1.14738305        2.87027619
 C           -2.33658410        0.09342279        2.26314778
 C           -1.79300704       -3.13442453        1.92740103
 C           -2.95052450       -2.26125263        2.04895114
 C           -0.18044430       -2.56292024        0.18505485
 C           -1.40055542       -3.12099316        0.53761343
 C           -0.02831879       -2.06641477       -1.10313432
 C            2.20230805       -1.32359281       -0.57702510
 C            1.24012363       -1.69631361       -1.52617047
 C            3.82124028        0.34737003        0.02264288
 C            3.65562262        1.78762028       -0.11957405
 C            3.26403707       -0.47692648       -0.94421928
 C            3.22459629        2.26562918       -1.34090927
 C            1.01612171        2.64403536       -0.31340454
 C            1.86582107        2.78362611       -1.41743109
 C           -1.12885040        1.89624520        0.52316808
 C           -0.33700841        2.37803362       -0.52512061
 C           -2.91397329        0.35293244        1.01352112
 C           -2.41363094        1.42410592        0.26197450
 C           -3.40291239       -1.97010197        0.71617727
 C           -2.57728709       -2.72721542       -0.20759024
 C           -3.66867212       -0.65309460        0.38054515
 C           -1.13121484       -1.97591698       -1.97595888
 C           -2.42775015       -2.19709110       -1.48382271
 C           -0.97097217       -1.38398433       -3.24003546
 C            1.45102843       -1.47026718       -2.87739537
 C            0.31378416       -1.12246885       -3.70456141
 C            3.37786003       -0.03551040       -2.25930488
 C            3.41273836        1.39959400       -2.48729657
 C            2.54471330       -0.61745495       -3.28519236
 C            1.36098821        2.49305388       -2.75159186
 C            0.57075671        0.21317429       -4.21158184
 C            2.37655932        1.71758418       -3.44582751
 C            1.98375459        0.47418292       -4.06995956
 C           -0.84151107        2.39275822       -1.82722030
 C            0.02195814        2.14577756       -2.89882132
 C           -0.34120548        1.20733845       -3.87842610
 C           -3.03196376        1.77906412       -0.93132263
 C           -2.20970730        2.26975423       -2.02487908
 C           -4.05400980       -0.46478360       -0.93638968
 C           -3.45784571       -1.36131503       -1.91544614
 C           -4.00633257        0.86783780       -1.48671902
 C           -1.98472433       -0.56152175       -3.73579226
 C           -1.67517545        0.84136364       -3.97014393
 C           -2.65171024        1.62003972       -3.23985318
 C           -3.30226440       -0.62652075       -3.14756225
 C           -3.75134255        0.73613593       -2.90861161
