   70
C70 / DATE: 7/ 1/2024 / Origin: Program Fullerene / C70 from database
 C            1.20519293        0.04596626        4.34916625
 C            2.49913512       -0.22001410        3.76051526
 C            2.55644421       -1.64226936        3.49652402
 C            0.37343133       -1.13508212        4.15712616
 C            1.19523710       -2.14933702        3.54390716
 C           -0.83047090       -0.71575098        3.47238532
 C            0.45474241        1.17185235        3.84585654
 C           -0.90640075        0.72089403        3.61938797
 C            1.02378503        2.00012356        2.88311964
 C            2.85278146        0.46708747        2.52952469
 C            2.01019159        1.46831832        2.04066718
 C            3.30252326       -1.83092403        2.26612107
 C            3.37748618       -0.53197139        1.61078788
 C            2.97573086       -2.93232363        1.49372791
 C            0.72725725       -2.83542979        2.43030232
 C            1.68510295       -3.56084900        1.73230385
 C           -1.13994189       -1.26764161        2.23774456
 C           -0.40457723       -2.35650936        1.73873829
 C           -1.98915440       -0.55683418        1.38858737
 C           -1.66284220        1.45476215        2.71633283
 C           -2.30815419        0.78564262        1.66633596
 C            0.19106863        2.99051549        2.38452057
 C           -1.23799364        2.76023680        2.50173256
 C            0.40805432        3.48236151        1.04074566
 C            1.91563299        1.66130604        0.65467392
 C            1.10114386        2.67895189        0.14691766
 C            3.06585337       -0.42307880        0.25813562
 C            2.57408314        0.78857602       -0.21710361
 C            3.09831600       -2.82752268        0.05561670
 C            2.97883334       -1.57160629       -0.54154333
 C            1.30771203       -4.23977442        0.51780847
 C            2.33386921       -3.93974367       -0.47011744
 C           -0.71023938       -2.85628380        0.46190769
 C            0.03476750       -3.90584655       -0.07574564
 C           -2.38261649       -1.14154299        0.18723665
 C           -1.58921561       -2.14837452       -0.36608483
 C           -3.30123814       -0.48718229       -0.62681297
 C           -3.05891774        1.52806094        0.74279256
 C           -3.69347674        0.87091736       -0.30505578
 C           -1.88571392        3.55138240        1.48546373
 C           -0.83977629        4.08583219        0.62350595
 C           -2.85620946        2.90491836        0.63095475
 C           -1.27777400        3.89936345       -0.74287226
 C           -2.67212718        3.48878157       -0.68457939
 C            0.77427031        2.70584912       -1.21488117
 C           -0.43160101        3.27496886       -1.65369392
 C            2.46202071        0.96714140       -1.58667429
 C            1.54592891        1.96730066       -2.10546417
 C            2.52776231       -1.46800538       -1.86677055
 C            2.37293593       -0.20716776       -2.43441482
 C            1.66818546       -3.77675507       -1.74038638
 C            0.24259360       -3.94803533       -1.50597637
 C            1.82788993       -2.52423707       -2.45166639
 C           -1.46778225       -2.22898397       -1.76211723
 C           -0.44336337       -2.97130704       -2.31974791
 C            0.55034101       -2.24817907       -3.08445571
 C           -3.11327134       -0.56136477       -2.06197770
 C           -1.96321281       -1.18325140       -2.52615046
 C           -3.90773331        1.58048022       -1.56057449
 C           -3.22421529        2.84385124       -1.78066624
 C           -3.55590964        0.68441165       -2.64861288
 C           -0.97379755        2.88538819       -2.87724977
 C           -2.41407027        2.70459609       -2.97979617
 C           -2.65324751        1.38215583       -3.53472166
 C            0.93434834        1.42464229       -3.30676649
 C            1.27331937        0.01192228       -3.36221556
 C            0.25544106       -0.93828718       -3.44710166
 C           -1.07435250       -0.50742172       -3.37985851
 C           -0.35334828        1.81490072       -3.63454011
 C           -1.36066774        0.78542900       -3.81477888
