   70
C70 / DATE: 7/ 1/2024 / Origin: Program Fullerene / C70 from database
 C            1.18189106        0.03827722        4.31135853
 C            2.48703835       -0.30966083        3.79850621
 C            2.45066247       -1.71288721        3.41815879
 C            0.36143444       -1.16147817        4.25077651
 C            1.05961330       -2.12431261        3.43101163
 C           -0.95473070       -0.75218720        3.83670218
 C            0.43388618        1.09659959        3.65526487
 C           -0.95112933        0.69634520        3.71872531
 C            0.91042607        1.64489696        2.47074391
 C            2.99614526        0.42464781        2.66272159
 C            2.25562855        1.46838484        2.11146655
 C            3.20000442       -1.85893264        2.18469567
 C            3.62336393       -0.53209617        1.76528412
 C            2.71415615       -2.72961189        1.22622178
 C            0.47648034       -2.56704967        2.24144818
 C            1.30952170       -3.12466313        1.27538419
 C           -1.60041588       -1.46773359        2.83781765
 C           -0.81186253       -2.13147945        1.88326545
 C           -2.82690657       -0.94823985        2.45229600
 C           -1.86398123        1.24450621        2.83089946
 C           -3.00751586        0.48212041        2.63472303
 C           -0.00608160        2.17467855        1.55012573
 C           -1.39406697        2.02547726        1.76037849
 C            0.47029374        2.86572233        0.42996361
 C            2.70580915        1.97640654        0.90362888
 C            1.80276317        2.73132741        0.06353091
 C            3.68696125       -0.21907387        0.40729150
 C            3.50315661        1.11511380        0.04341623
 C            3.04081160       -2.48174634       -0.16199873
 C            3.51624121       -1.22751252       -0.55001157
 C            0.84232189       -3.24045029       -0.09130394
 C            2.00729702       -3.12989606       -0.95027430
 C           -1.19928397       -2.12829534        0.52770955
 C           -0.33615298       -2.60536272       -0.45826606
 C           -3.34385736       -1.25195884        1.13930505
 C           -2.44128397       -1.61797122        0.14770775
 C           -3.98760865        0.92274615        1.67761738
 C           -4.34110252       -0.23439472        0.87002274
 C           -2.30338740        2.46013705        0.77805196
 C           -3.61516951        1.98150313        0.77043752
 C           -0.41531629        3.28548515       -0.55112919
 C           -1.83638546        3.10760248       -0.36058164
 C           -0.10426102        2.99951301       -1.94479318
 C            2.12240852        2.42928663       -1.32400458
 C            3.21002039        1.46667872       -1.33417353
 C            1.08143016        2.33013116       -2.24482823
 C            3.48116871       -0.89499330       -1.90345618
 C            3.23271168        0.48113251       -2.30209568
 C            1.83176530       -2.73805805       -2.26580273
 C            2.74785837       -1.75513133       -2.81728402
 C           -0.54105609       -2.24543268       -1.79186488
 C            0.49548059       -2.39045590       -2.71940958
 C           -2.65957038       -1.24953553       -1.18778411
 C           -1.66650744       -1.49612005       -2.13852471
 C           -4.50888158        0.22681260       -0.48643335
 C           -4.24046887        1.65788849       -0.49892326
 C           -3.68622183       -0.35987055       -1.52041030
 C           -2.42515064        2.80374223       -1.65962954
 C           -1.34075309        2.64446814       -2.61527909
 C           -3.52187606        1.95451080       -1.72503059
 C           -3.40898560        0.70556571       -2.46341821
 C           -1.64404675       -0.73411929       -3.30819120
 C           -1.35107896        1.57145014       -3.49273298
 C           -2.35732290        0.52767667       -3.34613944
 C            1.09234005        1.31117777       -3.20827866
 C            2.20323976        0.47444696       -3.32626569
 C            1.99766195       -0.90698938       -3.72643173
 C            0.64008523       -1.41294196       -3.78595559
 C           -0.09651869        0.91697375       -3.82639060
 C           -0.38313988       -0.50279105       -3.97956181
