   70
C70 / DATE: 7/ 1/2024 / Origin: Program Fullerene / C70 from database
 C            1.23278037       -0.15917885        4.47752579
 C            2.49015848       -0.38113951        3.79012329
 C            2.39252284       -1.65125927        3.09079097
 C            0.39006737       -1.32103390        4.24201687
 C            1.04323265       -2.15348587        3.25629918
 C           -0.94715465       -0.84987650        3.95132222
 C            0.45363055        1.02682695        4.16312703
 C           -0.91194139        0.60391210        3.91151920
 C            1.00522440        2.02617313        3.37470785
 C            2.95842222        0.61241444        2.84055511
 C            2.31829671        1.84140566        2.76543444
 C            2.88971068       -1.45574519        1.74521684
 C            3.30901454       -0.07331583        1.60613627
 C            2.20991953       -2.03185239        0.68713559
 C            0.32496306       -2.52246006        2.12424730
 C            0.99837440       -2.69461224        0.91065417
 C           -1.70320704       -1.50632783        2.98562196
 C           -1.06904590       -2.41863241        2.13017445
 C           -2.85200536       -0.85086707        2.54921380
 C           -1.68710072        1.25212076        2.95038198
 C           -2.85210693        0.60313604        2.55768196
 C            0.15945098        2.70721099        2.40885756
 C           -1.08196039        2.17511801        2.08158555
 C            2.31052322        2.54267400        1.49768981
 C            1.02044044        3.19634419        1.35175423
 C            3.11021283        0.56987232        0.38062916
 C            2.87682785        1.94929187        0.37194028
 C            2.48338059       -1.55634085       -0.58453006
 C            2.78043072       -0.20055088       -0.74783538
 C            2.03589087       -2.30487637       -1.65762573
 C            0.32199463       -3.24738882       -0.18031675
 C            0.93822842       -3.23008730       -1.43206371
 C           -1.78060676       -2.97675075        1.07346799
 C           -1.05902485       -3.43500647       -0.10399555
 C           -3.53870307       -1.29467504        1.34962553
 C           -3.00733999       -2.34306968        0.61698551
 C           -3.55721332        1.05798315        1.38237709
 C           -4.00442375       -0.11386722        0.64544600
 C           -1.59427777        2.39734435        0.79503706
 C           -2.86026968        1.92526495        0.45996882
 C            0.52081805        3.34771064        0.06554355
 C           -0.74891361        2.83174708       -0.23500110
 C            2.64796044        2.58178941       -0.84239447
 C            1.47218723        3.43244190       -0.94499886
 C            2.56768711        0.42386175       -1.98344937
 C            2.70802376        1.80674975       -2.06358679
 C            1.83894141       -1.66567340       -2.94201377
 C            2.00203957       -0.28933850       -3.05187696
 C            0.11630223       -3.23889473       -2.62802651
 C            0.67850630       -2.28231446       -3.56536458
 C           -1.89680378       -3.15522843       -1.26457354
 C           -2.92577319       -2.22923604       -0.83070862
 C           -1.29955793       -2.95793236       -2.49849752
 C           -3.63107197        0.06946924       -0.74605711
 C           -3.07794125        1.40396990       -0.87639933
 C           -3.02703116       -0.97607516       -1.43826705
 C           -1.11078091        2.56715011       -1.56558569
 C           -2.09998599        1.62287781       -1.83068893
 C            1.04479786        3.42529896       -2.32427423
 C            1.95212661        2.55236558       -3.05154022
 C           -0.30121730        2.98979672       -2.61375512
 C            1.24360194        0.37562390       -4.01853561
 C            1.16654254        1.82079618       -4.01753397
 C           -0.23252708        2.16938245       -3.80869076
 C           -0.39773907       -1.42422859       -4.02695890
 C           -1.56298744       -1.71585479       -3.20590810
 C           -2.22529453       -0.68014456       -2.54354712
 C           -1.87397270        0.64885161       -2.80440199
 C           -0.09579239       -0.10299520       -4.31186648
 C           -0.99946152        0.93334057       -3.84992450
