   70
C70 / DATE: 7/ 1/2024 / Origin: Program Fullerene / C70 from database
 C            1.03172922       -0.04962798        4.72985070
 C            2.28499341       -0.35301206        4.07636005
 C            2.26209593       -1.76465702        3.74329105
 C            0.21081572       -1.25424335        4.69000171
 C            0.87763967       -2.18767308        3.80952855
 C           -1.13824698       -0.85123357        4.36755440
 C            0.22074980        1.03051590        4.20827153
 C           -1.14997574        0.60116390        4.34302043
 C            0.58328715        1.67620671        3.02600791
 C            2.62512478        0.35970265        2.86276698
 C            1.76252539        1.32057663        2.34907924
 C            2.95450717       -1.92957232        2.48157315
 C            3.21205904       -0.59976880        1.94477688
 C            2.47038459       -2.89109063        1.61089407
 C            0.25931986       -2.60392616        2.62843860
 C            1.05677878       -3.24931413        1.69287483
 C           -1.71444158       -1.29907974        3.11264845
 C           -0.92168905       -1.98126739        2.19712052
 C           -2.07046694        0.99772138        3.30487985
 C           -2.53712298       -0.21118991        2.63936348
 C           -0.39081882        2.42024103        2.34677709
 C           -1.74711432        2.08183566        2.49746479
 C            0.01794185        3.19010346        1.25770821
 C            1.92264482        1.69274419        1.01796990
 C            1.22764025        2.80141595        0.55684326
 C            3.07416246       -0.39561754        0.57031112
 C            2.45962490        0.77608977        0.10496823
 C            2.77862507       -2.75023894        0.20497319
 C            3.16672214       -1.50125663       -0.27808512
 C            0.57180885       -3.41159687        0.33666398
 C            1.75021883       -3.48631432       -0.50508396
 C           -1.20080585       -1.85945295        0.82600464
 C           -0.51823956       -2.65984848       -0.09305731
 C           -2.83577434       -0.11645530        1.28610265
 C           -2.17743029       -0.95521281        0.37378256
 C           -2.62036536        2.30139030        1.44071383
 C           -3.25198677        1.13314589        0.85160687
 C           -0.94673192        3.63100996        0.26380188
 C           -2.25893372        3.20017447        0.36391393
 C            0.99157863        2.95186589       -0.86566923
 C           -0.28367714        3.62427179       -1.03261218
 C            2.24197449        0.94736824       -1.26794474
 C            1.34285605        1.91194938       -1.71834164
 C            3.13885044       -1.29838278       -1.65184031
 C            2.70483867       -0.00896804       -2.15991325
 C            1.60479459       -3.25227914       -1.85835819
 C            2.53151025       -2.32426617       -2.48205686
 C           -0.68941386       -2.44976287       -1.46193499
 C            0.28398779       -2.91356280       -2.35491313
 C           -2.33819051       -0.73805155       -1.00660710
 C           -1.67507479       -1.57325501       -1.91885058
 C           -3.40082207        1.37689735       -0.55875228
 C           -2.95308317        2.73666966       -0.82453148
 C           -3.07419678        0.37371288       -1.45870170
 C           -1.01949056        3.38463216       -2.18484339
 C           -2.42760170        3.02246238       -2.07645523
 C            0.64276047        1.71974953       -2.91697832
 C           -0.43580586        2.55302961       -3.22421562
 C            1.97315703       -0.23063334       -3.39557105
 C            1.82896018       -1.66735186       -3.56658730
 C            0.48707786       -2.22030473       -3.61418405
 C            0.87592131        0.57361232       -3.69019481
 C           -1.74105379       -1.31527990       -3.28881972
 C           -0.52315635       -1.39716564       -4.06973743
 C           -0.18502985       -0.02123573       -4.37802413
 C           -3.06641697        0.72642997       -2.80365292
 C           -2.71698032        2.09297951       -3.15437914
 C           -1.54081573        2.02674091       -3.99977350
 C           -2.42785427       -0.13481514       -3.76550302
 C           -1.45085955        0.67055521       -4.49173482
