   70
C70 / DATE: 7/ 1/2024 / Origin: Program Fullerene / C70 from database
 C            1.34770459        0.04857000        4.36413615
 C            2.59657201       -0.18195713        3.67589531
 C            2.60918520       -1.56403693        3.23300925
 C            0.53133938       -1.14720626        4.23154437
 C            1.29372493       -2.12971934        3.48689755
 C           -0.76731716       -0.75049026        3.72032400
 C            0.54338632        1.17636037        3.94865033
 C           -0.79389454        0.69969209        3.64116072
 C            1.08584497        2.14059289        3.11034151
 C            2.91593105        0.65299571        2.53294359
 C            2.16262460        1.79363055        2.27377968
 C            3.12581112       -1.59347027        1.87594592
 C            3.24196418       -0.21756994        1.41693886
 C            2.62040921       -2.54576900        1.00749366
 C            0.66357697       -2.83060278        2.46350723
 C            1.44482803       -3.30111392        1.40981127
 C           -1.32890426       -1.48070766        2.68564525
 C           -0.71030216       -2.66323943        2.26637077
 C           -2.22207138       -0.83409440        1.83486263
 C           -1.48918903        1.32435385        2.60206346
 C           -2.07010640        0.53220075        1.60437536
 C            0.18788764        3.09882639        2.65732114
 C           -1.15395671        2.64514643        2.31414355
 C            0.61625643        4.01982371        1.62873374
 C            2.22028802        2.32526956        0.98538300
 C            1.71152227        3.60195676        0.78551205
 C            2.79571869        0.13456115        0.14139270
 C            2.41921987        1.45839087       -0.10181469
 C            2.43800895       -2.19779889       -0.38804162
 C            2.44610217       -0.85949853       -0.77848192
 C            0.80237879       -3.77788864        0.19796815
 C            1.41352457       -3.07930087       -0.92111173
 C           -1.34901196       -3.44524035        1.30925287
 C           -0.56948109       -3.97083639        0.19888348
 C           -2.97139739       -1.59133190        0.94822394
 C           -2.62121468       -2.98795512        0.77878487
 C           -3.26382145       -1.04099704       -0.36310131
 C           -2.24122851        1.03311167        0.30414944
 C           -2.74190345        0.20829961       -0.70176452
 C           -1.47596862        3.19314240        1.01093768
 C           -0.52388154        4.25684195        0.76261967
 C           -1.82130456        2.32092741       -0.01801237
 C            1.40362801        4.04780743       -0.55226828
 C           -0.00849635        4.41645997       -0.57480979
 C            2.04382695        1.83270198       -1.39750133
 C            1.61708336        3.13579523       -1.65530732
 C            1.80088681       -0.50246934       -1.96369292
 C            1.76810983        0.84328200       -2.34580119
 C            0.61415769       -2.61054090       -1.95448703
 C            1.01044933       -1.45392785       -2.62612104
 C           -1.31446775       -3.72017067       -1.02184155
 C           -2.64467122       -3.28204180       -0.64073731
 C           -3.20854184       -2.13191049       -1.32436788
 C           -0.69709261       -3.08542779       -2.09677879
 C           -2.75456995       -1.85555018       -2.60231201
 C           -1.52663699       -2.49985131       -3.05133129
 C           -2.48010299        0.51725755       -2.03994220
 C           -2.65656465       -0.47021600       -3.01376669
 C           -1.54243123        2.64597706       -1.35331001
 C           -0.61236800        3.65021845       -1.64382580
 C            0.48111729        3.32752008       -2.53370309
 C           -1.81601286        1.71139241       -2.35988514
 C            1.12428116        1.21783016       -3.52591674
 C            0.24488204        2.36963062       -3.49344221
 C           -1.08683832        1.80869145       -3.55159795
 C            0.40010174       -1.14510977       -3.83375413
 C           -0.94011891       -1.64063495       -4.06158741
 C           -1.80631318       -0.47978258       -4.18515912
 C            0.42640879        0.21796927       -4.31052516
 C           -0.95856129        0.66123091       -4.42290161
