   70
C70 / DATE: 7/ 1/2024 / Origin: Program Fullerene / C70 from database
 C            1.14677947        0.02951573        4.60737297
 C            2.35101341       -0.38116000        3.92781234
 C            2.24236629       -1.80850764        3.66378256
 C            0.32311734       -1.15816911        4.78441359
 C            0.86263115       -2.18163399        3.91365867
 C           -1.05046983       -0.75523246        4.60767875
 C            0.31023425        1.03712946        3.98594917
 C           -1.04622710        0.67036868        4.31816713
 C            0.58528922        1.47240794        2.68478415
 C            2.68549020        0.25507987        2.67329996
 C            1.83224797        1.20620131        2.10297925
 C            2.80178552       -2.05525835        2.34596143
 C            3.23549832       -0.77531645        1.81487948
 C            2.14372305       -2.93292786        1.50036681
 C            0.09960122       -2.67946076        2.85452337
 C            0.76817632       -3.30523136        1.80046872
 C           -1.83712899       -1.39649508        3.57269549
 C           -1.25588021       -2.33316976        2.72114055
 C           -2.06441259        0.90701822        3.32646691
 C           -2.68715320       -0.36713867        3.00246813
 C           -0.45786467        1.97706227        1.89220058
 C           -1.79351712        1.76899218        2.27791531
 C           -0.17453283        2.47681377        0.61174863
 C            2.04473920        1.52856935        0.76137892
 C            1.10254308        2.29202303        0.06710355
 C            3.18753554       -0.54412512        0.44936733
 C            2.96834987        0.76547246        0.04494515
 C            2.24180839       -2.72829799        0.06567149
 C            2.83732481       -1.57340541       -0.43266061
 C            0.09192778       -3.54185745        0.53837018
 C            0.99798761       -3.16394624       -0.53313910
 C           -1.94800186       -2.65569500        1.55560230
 C           -1.25174923       -3.24235580        0.42469631
 C           -3.20306201       -0.53589695        1.71627779
 C           -2.94324238       -1.72657511        1.03475673
 C           -2.78034571        1.83939572        1.31340571
 C           -3.49101286        0.61356014        0.98132358
 C           -1.21900942        2.95078974       -0.19265866
 C           -2.51798951        2.54558018        0.08556014
 C           -0.95298345        3.40883798       -1.47762584
 C            1.37482783        2.67622183       -1.25209975
 C            0.38305282        3.27754737       -2.02027469
 C            3.21318041        1.06559488       -1.28061813
 C            2.50328692        2.16823257       -1.88935385
 C            2.60132696       -1.23207453       -1.76846504
 C            3.16681993       -0.03839224       -2.21480215
 C            0.52631894       -2.45649717       -1.63253477
 C            1.44279096       -1.72893165       -2.39149918
 C           -1.73507973       -2.59888383       -0.78386842
 C           -2.83427566       -1.72762768       -0.42054796
 C           -0.83783997       -2.16611958       -1.75239394
 C           -3.56671715        0.54771122       -0.46793224
 C           -3.29238349        1.88754986       -0.95400329
 C           -3.01396087       -0.54413187       -1.12833208
 C           -1.89397786        3.07147798       -2.53482378
 C           -2.88666426        2.04868698       -2.26623715
 C            0.26033359        2.94921752       -3.43828833
 C           -1.13610842        2.65271194       -3.69644041
 C            2.45751376        1.89819885       -3.31680173
 C            2.81547808        0.50049203       -3.51161375
 C            1.22475372        2.14956604       -4.03544288
 C            0.99896849       -1.19163141       -3.59820113
 C            1.75026425       -0.13549410       -4.24834852
 C            0.81109882        0.89658496       -4.65227974
 C           -1.25366331       -1.19290317       -2.66141927
 C           -2.31308692       -0.33991363       -2.32310743
 C           -2.48721537        0.86432720       -3.00868773
 C           -1.51754588        1.28414021       -4.00654375
 C           -0.41327582       -0.88347849       -3.72832835
 C           -0.53380780        0.39485642       -4.40981950
