   70
C70 / DATE: 7/ 1/2024 / Origin: Program Fullerene / C70 from database
 C            1.23313942       -0.03067249        4.31928206
 C            2.53009862       -0.41572989        3.81013871
 C            2.43040087       -1.78370660        3.32187351
 C            0.38598094       -1.20841760        4.26708426
 C            1.03738886       -2.18362840        3.42284751
 C           -0.93097966       -0.76951790        3.88766035
 C            0.51814312        1.04957965        3.65757211
 C           -0.87352922        0.65404124        3.59400828
 C            1.09254613        1.68015359        2.55887566
 C            3.10840552        0.37991716        2.75154564
 C            2.46704360        1.53996616        2.32607114
 C            3.08810338       -1.84638722        2.02739551
 C            3.61479753       -0.52460750        1.73510004
 C            2.48936338       -2.56874715        1.01123903
 C            0.37515690       -2.63949068        2.28274022
 C            1.13445473       -3.07083963        1.19588183
 C           -1.67560880       -1.55617289        3.02806759
 C           -0.99460013       -2.37963698        2.11073783
 C           -2.87954799       -0.99384207        2.64126358
 C           -1.68490612        1.13254393        2.56684647
 C           -2.86846404        0.42769290        2.32933115
 C            0.26171575        2.19480356        1.55523160
 C           -1.09967210        1.84843315        1.51243229
 C            0.81742432        2.97829564        0.53884817
 C            3.01988916        2.16334963        1.21782758
 C            2.20090532        3.05305577        0.42301194
 C            3.65929736       -0.05081578        0.42507819
 C            3.76661807        1.33030916        0.28864022
 C            2.59669551       -2.08517330       -0.35260780
 C            3.04926728       -0.79125039       -0.60225099
 C            0.52360943       -3.16231503       -0.11558612
 C            1.44316156       -2.58148553       -1.07941348
 C           -1.61075633       -2.72364240        0.89548810
 C           -0.83208706       -2.90776872       -0.25197577
 C           -3.67288313       -1.66824506        1.64465165
 C           -2.99170575       -2.59051445        0.76701451
 C           -3.56226846        0.59085976        1.06617725
 C           -4.27959399       -0.64362447        0.81479868
 C           -1.83328130        2.06558894        0.34126484
 C           -2.90103984        1.23133416        0.02658169
 C            0.02762559        3.38574176       -0.53410997
 C           -1.33491461        2.90534711       -0.63894649
 C            0.59123007        3.42752011       -1.87761659
 C            2.80249357        3.09742195       -0.89844527
 C            3.65804172        1.92683189       -1.02151834
 C            1.93518254        3.12790641       -2.06083524
 C            2.66349337       -0.16439587       -1.79537628
 C            3.12496405        1.11792683       -2.08972119
 C            2.30596324        1.99858486       -2.90255873
 C            0.92554310       -1.82359341       -2.11997329
 C            1.64911068       -0.72033841       -2.58377952
 C           -1.31176932       -2.50221351       -1.50028705
 C           -0.42872732       -1.95829431       -2.43893819
 C           -3.56737993       -2.40739469       -0.55121966
 C           -4.31698261       -1.15634348       -0.53324461
 C           -2.68159087       -2.35280412       -1.69762392
 C           -3.13057234        0.86342072       -1.30905442
 C           -3.78487431       -0.33532420       -1.60149541
 C           -3.15030604       -1.25364559       -2.52127137
 C           -1.59888368        2.58012542       -2.02847181
 C           -0.39316452        2.87446088       -2.79278956
 C           -2.36433447        1.45139960       -2.32137151
 C            1.35492170        1.42726411       -3.73216841
 C            1.18979813       -0.01409994       -3.69404336
 C            0.02071240        2.00344986       -3.79276111
 C           -0.94758134       -1.28709961       -3.54384393
 C           -2.28167249       -0.72393041       -3.45577888
 C           -2.10212911        0.71660948       -3.48063468
 C           -0.12922144       -0.29953519       -4.21887719
 C           -0.87765862        0.95130949       -4.22401907
