   70
C70 / DATE: 7/ 1/2024 / Origin: Program Fullerene / C70 from database
 C            1.33570365        0.07542424        4.29595417
 C            2.57906939       -0.19105717        3.60765488
 C            2.59937288       -1.60485991        3.28381019
 C            0.51055706       -1.12122909        4.21847912
 C            1.25941141       -2.12784957        3.49509011
 C           -0.79318800       -0.73132859        3.71428288
 C            0.52994604        1.18309322        3.83595415
 C           -0.83837155        0.71674828        3.69380312
 C            1.02482574        2.03661594        2.85568904
 C            2.86834322        0.54500498        2.38813431
 C            2.00743597        1.56061611        1.97554021
 C            3.19435814       -1.74639800        1.96899634
 C            3.35160120       -0.41061261        1.40804286
 C            2.72157348       -2.75764512        1.14669669
 C            0.64050472       -2.81359190        2.45398799
 C            1.44487519       -3.37998521        1.46623046
 C           -1.33583186       -1.42336042        2.64506090
 C           -0.71449491       -2.59214681        2.18779465
 C           -2.28456921       -0.78032276        1.85149316
 C           -1.63987345        1.37165002        2.76101216
 C           -2.30014819        0.61697154        1.77547627
 C            0.13632011        2.99888004        2.39976545
 C           -1.28158044        2.68472119        2.47796076
 C            0.36076908        3.62067291        1.11343413
 C            1.93018257        1.87338924        0.61270751
 C            1.21909843        3.00704889        0.20957982
 C            3.06597116       -0.20388584        0.06171957
 C            2.48181481        1.00258344       -0.34187018
 C            2.75394732       -2.55932860       -0.28862871
 C            3.05258776       -1.30150912       -0.80282592
 C            0.84959072       -3.83824709        0.22051851
 C            1.64372353       -3.29691836       -0.86947723
 C           -1.33337170       -3.34503511        1.19385602
 C           -0.52927659       -3.86606926        0.10151461
 C           -3.01515004       -1.52286553        0.93618654
 C           -2.58061611       -2.87143937        0.62549806
 C           -3.41958722       -0.89839272       -0.30482734
 C           -2.85692680        1.24481652        0.64426249
 C           -3.29247610        0.47871598       -0.44259239
 C           -1.95055520        3.38990735        1.41229719
 C           -0.93206121        4.09408832        0.64938545
 C           -2.74417798        2.62488358        0.48008518
 C           -1.25963326        3.95523111       -0.75651803
 C           -2.47776304        3.16160118       -0.84274435
 C            1.07056997        3.28859706       -1.14425651
 C           -0.22642756        3.71785434       -1.65325029
 C            2.35392425        1.27534741       -1.70735883
 C            1.66319549        2.40680865       -2.12743569
 C            2.79463148       -1.09160689       -2.15058585
 C            2.59254062        0.26004517       -2.62789062
 C            1.02420058       -2.76606557       -1.99839407
 C            1.79844022       -1.93309794       -2.79736454
 C           -1.13224186       -3.40959914       -1.13785213
 C           -2.47801148       -2.98477408       -0.82136462
 C           -2.95945676       -1.74841787       -1.39307514
 C           -0.37372153       -2.65294233       -2.02895463
 C           -2.26042294       -1.16059019       -2.44044049
 C           -0.99384303       -1.64822696       -2.79399527
 C           -3.17531215        0.99193052       -1.73458161
 C           -2.68803482        2.34491922       -1.94431207
 C           -2.60947481        0.14570643       -2.77189688
 C           -0.49244660        2.97080797       -2.87005777
 C            0.74418562        2.31395753       -3.25508775
 C           -1.70213151        2.30024811       -3.01509535
 C           -1.72378924        0.96083053       -3.58563469
 C            1.76044181        0.17103895       -3.81594448
 C            1.16422758       -1.15484177       -3.83650510
 C           -0.27159937       -0.99475363       -3.79100643
 C            0.69538506        1.13859852       -3.99293061
 C           -0.55675977        0.39964004       -4.08319935
