   70
C70 / DATE: 7/ 1/2024 / Origin: Program Fullerene / C70 from database
 C            1.67040369        0.00014490        4.43023859
 C            0.83880360       -1.18411024        4.32814655
 C            1.39599318       -2.04136503        3.29472450
 C            2.67698736       -0.07853487        3.38906715
 C            2.54434076       -1.36298455        2.72442964
 C            2.58064130        1.12063485        2.57555066
 C            0.83377173        1.15011428        4.14256992
 C            1.43491278        1.88105443        3.03928988
 C           -0.54053866       -0.75256925        4.19825869
 C           -0.53398437        0.68644316        3.98801625
 C           -1.39661524       -1.53371460        3.44011024
 C            0.52751615       -2.70622544        2.43744090
 C           -0.84601406       -2.65038971        2.68811898
 C            0.97134808       -3.06045464        1.16229439
 C            2.72168008       -1.40187707        1.34737756
 C            2.06036703       -2.37739244        0.59630720
 C            2.77726038        0.99352150        1.20684233
 C            3.16527018       -0.24741522        0.70749111
 C            2.16626279        1.90423010        0.34245311
 C            0.58993774        2.44414442        2.09093855
 C            1.06206299        2.64268343        0.79166898
 C           -1.29171666        1.23631599        2.95769618
 C           -0.78488063        2.35431630        2.29581018
 C           -2.37854797       -0.88740119        2.58557173
 C           -2.29244342        0.47847968        2.33760515
 C           -1.78361231       -2.94095957        1.61680547
 C           -2.64017807       -1.77410922        1.46829537
 C            0.11117900       -3.79874796        0.35553387
 C           -1.31744294       -3.58049732        0.48124975
 C            0.39777279       -3.94725668       -1.05349775
 C            2.34012370       -2.47397354       -0.77539722
 C            1.51984085       -3.22854183       -1.61224983
 C            3.53337412       -0.33382873       -0.62224924
 C            3.19441222       -1.53886878       -1.35785636
 C            2.47225016        1.84316366       -1.02028119
 C            3.27499394        0.80321446       -1.48742783
 C            1.71773521        2.57370404       -1.93417459
 C            0.24994241        3.32769265       -0.11662865
 C            0.58489379        3.35047376       -1.46682338
 C           -1.62326526        3.04176243        1.43508856
 C           -1.04242430        3.67910011        0.26840361
 C           -2.91829680        0.99487032        1.19974370
 C           -2.82641307        2.36973371        0.99226231
 C           -2.83313082       -1.20966302        0.21173450
 C           -3.20505516        0.13202105        0.12710915
 C           -1.78446597       -3.12623975       -0.81454854
 C           -0.79281059       -3.54120136       -1.78875735
 C           -2.34764155       -1.85901629       -0.92889854
 C            1.07031072       -2.65900299       -2.87386843
 C           -0.37651378       -2.59294325       -2.80637609
 C            2.98304753       -1.15879059       -2.74470924
 C            3.05851274        0.28986393       -2.82806822
 C            1.76157148       -1.58210525       -3.40391486
 C            1.33922354        1.96788645       -3.20652650
 C            1.90394353        0.75645806       -3.56954564
 C            1.02304098       -0.38243860       -3.76867689
 C           -0.46158026        3.24035191       -2.47561247
 C           -0.09507578        2.13325636       -3.34107818
 C           -2.09083539        3.76853831       -0.73487861
 C           -3.20590092        2.95172390       -0.27920522
 C           -1.78875111        3.39360076       -2.10331353
 C           -3.51266560        0.63838147       -1.13392064
 C           -3.58239981        2.06820546       -1.35616333
 C           -2.74491805        2.37662260       -2.50429104
 C           -2.15269244       -1.13194408       -2.10569571
 C           -1.00361866       -1.35150781       -2.86886653
 C           -0.32779675       -0.26400433       -3.43426447
 C           -0.91301856        1.00426521       -3.40324241
 C           -2.86576674        0.04427180       -2.28762968
 C           -2.25271681        1.11882977       -3.04560650
