   70
C70 / DATE: 7/ 1/2024 / Origin: Program Fullerene / C70 from database
 C            0.97839100       -0.06640423        5.00645175
 C            2.35149258       -0.33230107        4.64443957
 C            2.36322804       -1.58746623        3.89985324
 C            0.21587308       -1.25641733        4.66990657
 C            0.98790752       -1.97731960        3.67919573
 C           -1.10777733       -0.81218284        4.31193167
 C            0.29334090        1.05097417        4.37832087
 C           -1.08889447        0.64613234        4.29381412
 C            0.87965351        1.70114088        3.28779213
 C            3.04511893        0.65455312        3.84329176
 C            2.26834141        1.66031328        3.13462432
 C            3.21235997       -1.39985743        2.74760616
 C            3.80102048       -0.07498442        2.84795768
 C            2.77231488       -1.81389588        1.49612481
 C            0.51472527       -2.07039417        2.36671545
 C            1.42699277       -2.18099832        1.30877494
 C           -1.65511246       -1.23040909        3.03896107
 C           -0.84314300       -1.85552093        2.09199432
 C           -1.85646507        1.06158226        3.14364528
 C           -2.47451293       -0.12752623        2.59906536
 C            0.08529741        2.14832413        2.21756768
 C           -1.30897834        1.96146798        2.23610424
 C            0.71356152        2.55394615        1.03203711
 C            2.84038325        1.78502418        1.80304530
 C            3.84008943        0.73847608        1.64542480
 C            1.99122740        2.08721213        0.74324519
 C            3.47950692       -1.32018523        0.41071301
 C            3.89583893        0.07283670        0.43337895
 C            2.99821965       -1.60198727       -0.91538689
 C            0.94796237       -2.39969470        0.00755772
 C            1.85616945       -2.37363916       -1.05972167
 C           -1.28169189       -1.85080273        0.76556404
 C           -0.42792936       -2.27639189       -0.24692435
 C           -2.82389433       -0.07778049        1.26665286
 C           -2.42702895       -1.12098403        0.43198338
 C           -2.03373761        2.16230928        1.05840749
 C           -2.96272546        1.17936264        0.69755515
 C           -0.04468256        3.07160028       -0.00734269
 C           -1.48412449        2.97512661        0.07436288
 C            0.34043536        2.74395515       -1.37023700
 C            2.27850241        1.62225880       -0.54748177
 C            3.28864308        0.69291586       -0.72768750
 C            3.07529308       -0.36873689       -1.68049026
 C            1.34432974        1.80713714       -1.56994026
 C            2.13742848       -0.20672028       -2.68816617
 C            1.22764865        0.86483457       -2.60886933
 C            1.37425534       -2.48081108       -2.35519030
 C            1.70607526       -1.39360059       -3.26128832
 C           -0.91414875       -2.36347636       -1.55470445
 C           -0.02867314       -2.74423518       -2.55848177
 C           -2.86306545       -1.07911211       -0.89306649
 C           -2.13808739       -1.75582299       -1.88256886
 C           -3.58748830        1.22780550       -0.53812587
 C           -3.71790512       -0.02916233       -1.24795245
 C           -1.99653601        2.91261963       -1.28262100
 C           -0.86257226        2.69161695       -2.17232679
 C           -3.17268175        2.21989612       -1.51372550
 C            0.09645523        0.87910063       -3.45273375
 C           -0.96934490        1.75867293       -3.19919731
 C            0.68772955       -1.34705675       -4.27517756
 C           -0.28628420       -2.37400030       -3.93625216
 C           -0.04388989       -0.11358983       -4.43067035
 C           -2.55235694       -1.67466165       -3.21898415
 C           -1.58348312       -1.84798043       -4.27800076
 C           -1.36574027       -0.52683427       -4.85140923
 C           -3.93370192        0.30685403       -2.63658854
 C           -3.38578976        1.64150147       -2.82890005
 C           -2.24403087        1.49468185       -3.70938386
 C           -3.35712391       -0.54796230       -3.64664769
 C           -2.49221067        0.28667380       -4.46782152
