   70
C70 / DATE: 7/ 1/2024 / Origin: Program Fullerene / C70 from database
 C            1.49945156        0.04351216        4.74515992
 C            0.70181600       -1.16229508        4.60481571
 C            1.48396157       -2.12318882        3.86354244
 C            2.65534607       -0.09144636        3.87580942
 C            2.71015368       -1.46449785        3.43393174
 C            2.58116400        0.95071422        2.86965912
 C            0.70517296        1.15515706        4.25314420
 C            1.43535686        1.78834906        3.17471196
 C           -0.59108174       -0.77813507        4.07657645
 C           -0.62859386        0.66652906        3.96504877
 C           -1.17282760       -1.51322060        3.05112429
 C            0.88993916       -2.74254719        2.69291914
 C           -0.42617649       -2.46811674        2.34120939
 C            2.86311419       -1.72127532        2.01661423
 C            1.88729638       -2.72602148        1.64637841
 C            2.83322513        0.65137948        1.53174471
 C            3.07703488       -0.66838395        1.12733331
 C            2.40849908        1.56791283        0.57268376
 C            0.70629038        2.30132370        2.10979487
 C            1.33286005        2.41546566        0.86943497
 C           -1.30485682        1.21200845        2.87757624
 C           -0.68747439        2.23325885        2.15192307
 C           -2.27247652       -0.94762446        2.41855498
 C           -2.29552853        0.44560816        2.25290325
 C           -2.96743153       -1.75739383        1.53551945
 C           -0.83945219       -2.82067597        1.05378865
 C           -2.19091502       -2.69025060        0.74436898
 C            1.47156289       -2.74095100        0.32263830
 C            0.10811123       -2.85736933        0.01841553
 C            2.97699972       -0.96378236       -0.23290939
 C            2.30327346       -2.13302562       -0.60739784
 C            2.78439136        1.37066564       -0.75145684
 C            3.11113026        0.07276669       -1.15773153
 C            2.42941363        2.34242384       -1.68095867
 C            0.67331862        3.09684261       -0.15728202
 C            1.24016799        3.12963363       -1.42913808
 C           -1.40497895        2.84878746        1.13793510
 C           -0.69723496        3.32165929       -0.04130136
 C           -3.05259749        1.02569733        1.22617750
 C           -2.65600339        2.25423795        0.69949891
 C           -3.97767518       -1.17270169        0.68416646
 C           -3.99086206        0.26477793        0.53147059
 C           -2.58729785       -2.51029280       -0.63822380
 C           -3.82674513       -1.75743916       -0.63808442
 C           -0.30606678       -2.68775307       -1.31313818
 C           -1.59961173       -2.23575927       -1.57614920
 C            2.03556660       -2.36849416       -1.94468279
 C            0.65145092       -2.58514100       -2.32072704
 C            3.20334781       -0.25265092       -2.51062325
 C            2.64758506       -1.51643218       -2.94491811
 C            2.46002066        2.04788497       -3.09926514
 C            2.85669091        0.72490684       -3.52273139
 C            0.36826649        2.97073160       -2.58489067
 C            1.12465090        2.29428597       -3.62058633
 C           -1.54571857        3.08023981       -1.19664907
 C           -2.79409253        2.50972692       -0.72800829
 C           -0.95580187        2.60637501       -2.36334428
 C           -4.22117829        0.53790399       -0.87689518
 C           -3.99502586       -0.69902626       -1.60670453
 C           -3.44572687        1.58172478       -1.52265497
 C           -1.80694211       -1.27595773       -2.58197686
 C           -1.44631004        1.43297090       -2.95361018
 C           -2.92888096       -0.45354092       -2.55455788
 C           -2.72246950        0.97824090       -2.63120000
 C            0.37141900       -1.70548975       -3.43696998
 C            1.63934333       -1.22780445       -3.95090529
 C            1.76233400        0.16817038       -4.30464097
 C            0.61605625        1.03505662       -4.11744556
 C           -0.71402127       -0.84302241       -3.32923720
 C           -0.55372695        0.53477760       -3.54957754
