   70
C70 / DATE: 7/ 1/2024 / Origin: Program Fullerene / C70 from database
 C            1.51287699        0.04030724        4.82670691
 C            0.71859964       -1.17099304        4.76171163
 C            1.24997306       -2.00150790        3.69549567
 C            2.59604431       -0.09751959        3.87164117
 C            2.52315286       -1.42628558        3.29396867
 C            2.54210754        1.03982839        2.97319505
 C            0.66744915        1.13516570        4.38022059
 C            1.28437434        1.72426648        3.21568807
 C           -0.66797926       -0.76945483        4.67282585
 C           -0.67978809        0.62896239        4.25325188
 C           -1.54013464       -1.63545185        4.03714152
 C            0.36495088       -2.48750938        2.72868034
 C           -0.98664599       -2.56316925        3.05228940
 C            0.76020138       -2.54067586        1.38593219
 C            2.93561700       -1.57982532        1.98235915
 C            2.10020392       -2.34254168        1.07373610
 C            2.93446539        0.85815767        1.65146086
 C            3.36979509       -0.40193305        1.24689669
 C            2.39432761        1.69888454        0.68347220
 C            0.49965349        2.04547878        2.11600263
 C            1.15681335        2.30434058        0.92235306
 C           -1.44773575        0.99445697        3.14475742
 C           -0.84844982        1.66591654        2.06472206
 C           -2.72730685       -1.05698865        3.44757125
 C           -2.63456166        0.29886061        2.93830842
 C           -1.96317922       -2.72170379        1.99467165
 C           -3.11461313       -1.90833747        2.34483119
 C           -0.19629869       -2.54920741        0.35703306
 C           -1.55078028       -2.73605737        0.66577868
 C            0.19884900       -2.34092938       -0.98102333
 C            2.46601319       -1.93610707       -0.26662233
 C            3.29137911       -0.74642784       -0.16177733
 C            1.51940860       -1.97436369       -1.27642139
 C            2.81814884        1.55236989       -0.63227212
 C            3.08785098        0.26137470       -1.09670433
 C            2.40745361        2.52031839       -1.54087134
 C            0.42424847        2.79580126       -0.15080907
 C            1.12083452        3.15040738       -1.30558868
 C           -1.54374603        1.81788583        0.85381890
 C           -0.94405188        2.51477980       -0.20466879
 C           -3.26008701        0.31019065        1.63063957
 C           -3.67321451       -1.05228831        1.32040814
 C           -2.71654679        1.08869898        0.61547615
 C           -2.51195638       -2.45055741       -0.29768385
 C           -3.55138714       -1.47691152        0.00967039
 C           -0.76329212       -2.31925057       -2.00465979
 C           -2.10506832       -2.23021077       -1.66644142
 C           -0.41082441       -1.86086859       -3.27339118
 C            1.78389834       -1.24834562       -2.43545496
 C            2.60467945       -0.11288070       -2.35046076
 C            0.95202052       -1.44831454       -3.52650724
 C            2.51217066        2.23613348       -2.95869893
 C            2.60113139        0.84899152       -3.35822235
 C            0.43000095        3.24418565       -2.57886044
 C            1.34949314        2.80906583       -3.61571553
 C           -1.62939016        2.61898285       -1.41397071
 C           -0.90734387        2.88538178       -2.64651526
 C           -3.10670666        0.82058925       -0.69822734
 C           -3.49136386       -0.47215557       -1.03172228
 C           -2.87655686       -1.10811690       -2.17961343
 C           -2.66353279        1.65080501       -1.71488833
 C           -1.27757069       -0.88226828       -3.91554021
 C           -1.36762159        1.93077980       -3.65079704
 C           -2.30351248       -0.31449907       -3.16569814
 C           -2.36398322        1.07525953       -3.02036744
 C            0.92281631       -0.48946682       -4.61423752
 C            1.75885896        0.68503580       -4.52549496
 C            0.89685629        1.85540901       -4.61140887
 C           -0.45318982       -0.04506958       -4.76683632
 C           -0.47829837        1.39112200       -4.57454353
