   70
C70 / DATE: 7/ 1/2024 / Origin: Program Fullerene / C70 from database
 C            1.18487219       -0.06050497        4.90928116
 C            2.50269176       -0.36640663        4.38974502
 C            2.42855978       -1.66486552        3.73558418
 C            0.36800675       -1.25373543        4.75958236
 C            1.05386713       -2.12844224        3.83027309
 C           -0.97481849       -0.82182189        4.43912088
 C            0.43474922        1.04334420        4.33192630
 C           -0.95040484        0.62611708        4.31355938
 C            0.94354668        1.73495562        3.23002004
 C            3.10454792        0.55921482        3.45397902
 C            2.29928031        1.64077453        2.91214595
 C            3.02839968       -1.53790951        2.41372034
 C            3.59803570       -0.21216221        2.32461921
 C            2.33343511       -2.04078161        1.31701533
 C            0.41926265       -2.53402690        2.65913456
 C            1.22203561       -2.84013206        1.56301936
 C           -1.60854364       -1.34412177        3.24314556
 C           -0.93884242       -2.25436982        2.43885336
 C           -1.75154591        0.97253537        3.16181435
 C           -2.29307757       -0.24651704        2.59414745
 C            0.06958116        2.28913786        2.28597394
 C           -1.28585405        1.92617741        2.27712838
 C            0.61143895        2.88181157        1.13751468
 C            2.70393017        1.80090933        1.52818888
 C            3.34158936        0.55992011        1.12726986
 C            1.81355993        2.38682370        0.64026137
 C            2.45370122       -1.41754916        0.06513444
 C            2.85563830       -0.08030765       -0.00613822
 C            1.80818541       -1.99808172       -1.03816252
 C            0.63952112       -3.49574208        0.49537154
 C            1.13134788       -3.19961789       -0.83358203
 C           -1.45909141       -2.49924051        1.17048579
 C           -0.80409448       -3.45762539        0.41122847
 C           -2.47616183       -0.29744374        1.21120636
 C           -2.18971523       -1.48294601        0.52594788
 C           -1.98627357        2.06262120        1.09060244
 C           -2.50881265        0.90363607        0.49600501
 C           -0.25222860        3.50965702        0.24367203
 C           -1.65334431        3.14788294        0.30202922
 C            0.10842424        3.55599996       -1.16494954
 C            1.86642866        1.99778890       -0.69735116
 C            2.32663522        0.71430898       -1.01041206
 C            1.11127616        2.70759868       -1.63128241
 C            1.53264279       -1.22296772       -2.18205026
 C            1.93915131        0.11794621       -2.19896523
 C            0.69075179       -1.72633146       -3.19527450
 C            0.07994687       -3.59543552       -1.74178289
 C           -1.15867425       -3.63247031       -0.97537199
 C           -0.16861239       -2.77941291       -2.90314229
 C           -2.40285754       -1.53080799       -0.85977470
 C           -2.05587047       -2.67444404       -1.57742028
 C           -1.60056926       -2.53303940       -2.94465203
 C           -2.74890694        0.86688846       -0.88138151
 C           -2.69328162       -0.35396933       -1.56084104
 C           -2.20381966        3.24484243       -1.02923265
 C           -1.13175468        3.67214620       -1.91152601
 C           -2.79214045        2.05805356       -1.60594121
 C           -1.26800795        2.93636771       -3.15219727
 C           -2.42510981        2.05652235       -3.00896341
 C            1.08479081        2.26881890       -2.95604350
 C            1.60977552        0.94991104       -3.25835520
 C           -0.11493446        2.45883202       -3.76134403
 C            0.31682944       -0.91150141       -4.26135205
 C            0.87142794        0.41747601       -4.37748405
 C           -0.21633500        1.33753415       -4.67591155
 C           -2.04434029       -1.44689225       -3.67574265
 C           -2.71242498       -0.37070856       -2.96116589
 C           -2.46918399        0.85686534       -3.70318754
 C           -1.09850613       -0.82670154       -4.58665473
 C           -1.44972588        0.57561448       -4.70107077
