   70
C70 / DATE: 7/ 1/2024 / Origin: Program Fullerene / C70 from database
 C            1.07455191       -0.04055335        4.64775568
 C            2.35622899       -0.32196665        4.05489215
 C            2.29371952       -1.66862575        3.50111761
 C            0.26910241       -1.24476679        4.51100934
 C            0.89851632       -2.04428530        3.48123656
 C           -1.09437758       -0.81543499        4.30987807
 C            0.28783380        1.04473583        4.10097638
 C           -1.08261241        0.63896740        4.29814456
 C            0.64545160        1.62073011        2.87504276
 C            2.81928369        0.53188119        2.98403386
 C            1.92770107        1.40105008        2.34366623
 C            3.01468737       -1.63422277        2.24451824
 C            3.64616680       -0.33043477        2.16813996
 C            2.41145031       -2.13298949        1.09344337
 C            0.27082097       -2.19572959        2.24544106
 C            1.04490934       -2.45965156        1.11038468
 C           -1.78281247       -1.23177439        3.10409509
 C           -1.08399517       -1.87513769        2.08929018
 C           -2.04663691        1.05798930        3.31568786
 C           -2.64936388       -0.13314908        2.74095688
 C           -0.34898034        2.21652246        2.07943302
 C           -1.70545128        2.07081234        2.43684006
 C           -0.00387363        2.70552932        0.80891074
 C            2.21744077        1.79289339        1.03222365
 C            1.20085129        2.31165692        0.22413662
 C            4.01364414        0.12949957        0.92005465
 C            3.41892537        1.36973921        0.45907410
 C            3.03420265       -1.86150864       -0.12567482
 C            3.92478902       -0.78918943       -0.20081272
 C            2.48412828       -2.37818578       -1.29351906
 C            0.40192150       -2.79422553       -0.08309274
 C            1.17145551       -2.99042744       -1.22546373
 C           -1.62589521       -1.86139792        0.80792506
 C           -0.96939280       -2.55577891       -0.20366666
 C           -3.10829330       -0.03915046        1.42979075
 C           -2.66063840       -0.96843276        0.48553776
 C           -2.68175155        2.35846414        1.49818905
 C           -3.44830183        1.23307828        0.98358580
 C           -0.96886852        3.31626106        0.00674458
 C           -2.35574510        3.22056575        0.39294639
 C           -0.90688515        3.12477894       -1.43262093
 C            1.31451727        2.30191264       -1.17578234
 C            0.16699638        2.41336433       -1.94947747
 C            3.56938072        1.38154040       -0.98121714
 C            3.94300988        0.03642643       -1.39276891
 C            2.44471842        1.78593078       -1.78812270
 C            2.54521388       -1.60597044       -2.52974887
 C            3.10373867       -0.33867230       -2.51385893
 C            2.26028642        0.80041343       -2.83706513
 C            0.56424740       -2.85505017       -2.53555563
 C            1.29094322       -1.80383203       -3.22906551
 C           -1.60818679       -2.72095274       -1.42908495
 C           -0.81683473       -2.88078032       -2.63953266
 C           -3.05844499       -0.83585591       -0.84935768
 C           -2.73623163       -1.86029181       -1.73992345
 C           -3.67163930        1.45643040       -0.42942121
 C           -3.11234875        2.75846158       -0.75619817
 C           -2.25358721        2.86284190       -1.91939095
 C           -3.48439676        0.41339243       -1.33022746
 C           -2.42670802        1.93374097       -2.93316092
 C           -3.24801601        0.76691652       -2.65882899
 C           -0.01174760        1.54368969       -3.03201293
 C            0.96855489        0.58572121       -3.31616758
 C            0.58705998       -0.70335458       -3.71457713
 C           -1.25883757        1.44488707       -3.63824202
 C           -1.43606396       -2.07445475       -3.67624907
 C           -2.71059866       -1.60231490       -3.16756858
 C           -2.88476536       -0.24427252       -3.62764341
 C           -0.70635436       -0.92316566       -4.18212294
 C           -1.63781253        0.18516214       -4.24787936
