   70
C70 / DATE: 7/ 1/2024 / Origin: Program Fullerene / C70 from database
 C            1.43937172        0.03460077        4.82279295
 C            0.67140544       -1.19235460        4.71998156
 C            1.56947759       -2.21318066        4.23424604
 C            2.65543606       -0.14622825        4.04566103
 C            2.77521737       -1.55231718        3.74669812
 C            2.61351202        0.79223765        2.94311115
 C            0.66941446        1.08748359        4.18781867
 C            1.50545844        1.69760895        3.17837976
 C           -0.52974444       -0.90713788        3.95331960
 C           -0.59225831        0.53049245        3.75076930
 C           -0.89747499       -1.74574035        2.89916003
 C            1.10846366       -3.07580098        3.16858376
 C           -0.18470961       -2.93287037        2.66348709
 C            2.95351636       -1.95835412        2.36382549
 C            2.20726796       -3.19067874        2.22628075
 C            2.83324695        0.35973087        1.63343074
 C            2.87798726       -1.01302440        1.33733955
 C            2.51330824        1.25178515        0.61107593
 C            0.88638767        2.22648695        2.05738991
 C            1.64164486        2.30728593        0.89913366
 C           -1.12095783        1.00071224        2.55656279
 C           -0.48998838        2.06361398        1.90477548
 C           -1.74647558       -1.23561669        1.90924949
 C           -1.92424406        0.15253649        1.80481258
 C           -2.24057238       -2.08718112        0.91658758
 C           -0.50201594       -3.70040353        1.54790743
 C           -1.55919892       -3.26951064        0.65348732
 C            1.91694812       -3.64664753        0.95271195
 C            0.59199444       -4.19358496        0.72651920
 C            2.58275750       -1.45180757        0.03788490
 C            2.21466611       -2.78053992       -0.17893238
 C            2.62620731        0.82184729       -0.70615251
 C            2.36539454       -0.51687084       -0.97676955
 C            2.45774037        1.76201327       -1.71442904
 C            1.11939982        3.04520710       -0.15435057
 C            1.81646240        3.00841440       -1.35565757
 C           -1.06591709        2.55094665        0.73139033
 C           -0.26166039        3.26664172       -0.16237292
 C           -2.60033626        0.69345154        0.71612804
 C           -2.24925520        1.96896392        0.26893707
 C           -3.02119086       -1.56215558       -0.10867806
 C           -3.32976416       -0.14877907       -0.11170075
 C           -2.68903433       -1.92812855       -1.47587960
 C           -1.13018370       -3.53313035       -0.71384374
 C            0.25142937       -3.96008867       -0.66278683
 C            1.24998138       -3.07621770       -1.22364449
 C           -1.50725179       -2.62577018       -1.69632991
 C            1.54695176       -0.85457127       -2.06367370
 C            0.81384537       -2.03865961       -2.03287868
 C           -0.50980836       -2.03024159       -2.47884184
 C            1.86932338        1.34200320       -2.97125412
 C            1.23919760        0.10452980       -3.02854841
 C            1.22112128        3.56015737       -2.55538547
 C            1.22736582        2.50826820       -3.56055602
 C           -0.86037408        3.92304616       -1.23598677
 C           -0.12150176        4.09357437       -2.47412215
 C           -2.86447197        2.48506279       -0.86969535
 C           -2.21890625        3.56560324       -1.59456081
 C           -3.58065598        0.23785679       -1.49073531
 C           -3.04166087       -0.81518069       -2.33858007
 C           -3.40716734        1.56557929       -1.85332377
 C           -0.87081719       -1.09060226       -3.43875674
 C            0.07815794       -0.04573227       -3.78809595
 C           -2.19440149       -0.48797747       -3.38830747
 C           -0.12085359        2.38776212       -4.08418414
 C           -0.90259296        3.48510136       -3.53815476
 C           -2.22776751        3.21986744       -3.00924048
 C           -2.78391645        1.88425486       -3.12762623
 C           -0.68763037        1.12340284       -4.19583112
 C           -2.07530018        0.89895485       -3.80957201
