   70
C70 / DATE: 7/ 1/2024 / Origin: Program Fullerene / C70 from database
 C            1.28957805        0.00065802        4.38217639
 C            2.54567063       -0.16085562        3.66901064
 C            2.48991694       -1.43752303        2.97239878
 C            0.46949007       -1.16690620        4.10010020
 C            1.13189879       -1.94334998        3.07972891
 C           -0.87013081       -0.71030342        3.83184690
 C            0.47839422        1.18684833        4.14756330
 C           -0.86304704        0.74347888        3.81901609
 C            1.02195267        2.25857652        3.45667912
 C            3.12114549        0.94246811        3.04792723
 C            2.42588329        2.21919941        3.08063536
 C            3.72543087        0.79952387        1.73195658
 C            3.16174653       -1.59663372        1.77203203
 C            3.81494049       -0.45381324        1.14631939
 C            2.52102787       -2.35519568        0.71445773
 C            0.42965291       -2.27772478        1.92056824
 C            1.14362960       -2.58417875        0.76012517
 C           -1.62073964       -1.34538831        2.85555119
 C           -0.96018591       -2.09024548        1.85774494
 C           -2.80086198       -0.69875075        2.52798121
 C           -1.59681083        1.39153995        2.82373166
 C           -2.74967478        0.74688286        2.38562598
 C            0.27553685        2.83934173        2.35082919
 C           -0.93689353        2.26924246        1.95440415
 C            2.55412364        2.83117132        1.77070624
 C            3.30278098        1.92623777        0.91819030
 C            1.23302800        3.24511334        1.33594556
 C            2.83803780        1.70791668       -0.37635817
 C            3.62198642       -0.57669539       -0.28937242
 C            3.12407959       -1.91693071       -0.52885309
 C            3.08173089        0.48580679       -1.01397391
 C            2.44579614       -2.16834796       -1.70494782
 C            0.46380629       -2.85227846       -0.42752493
 C            1.17740245       -2.86557796       -1.62709469
 C           -1.64773953       -2.45686787        0.68910000
 C           -0.93209938       -2.83075098       -0.45397349
 C           -3.61413723       -1.22529934        1.46450240
 C           -3.01387501       -2.19160686        0.57571856
 C           -3.28573937        1.05737821        1.07724239
 C           -4.04553790       -0.09903269        0.65129846
 C           -1.31879619        2.35039068        0.60519465
 C           -2.47027667        1.69629864        0.15601838
 C            0.89203338        3.06835147        0.00472640
 C            1.84611933        2.55007123       -0.87382946
 C           -0.45553376        2.94656592       -0.31695396
 C            1.53877316        2.48307283       -2.22405133
 C            2.50372167        0.23110554       -2.26357914
 C            2.26805764       -1.08554434       -2.65872572
 C            1.85467305        1.26049690       -2.94036693
 C            0.48914043       -2.60405496       -2.87390091
 C            1.08178597       -1.39818777       -3.44405444
 C           -1.60069927       -2.98687228       -1.67411913
 C           -0.88154428       -2.77927531       -2.92155053
 C           -3.57773295       -1.92239246       -0.73085761
 C           -3.94948603       -0.51404012       -0.73147034
 C           -2.93425640       -2.43348761       -1.84364531
 C           -2.66355227        1.47382366       -1.21284346
 C           -3.35225049        0.33554132       -1.65854399
 C           -0.82242991        3.02474060       -1.65472428
 C            0.22541506        2.92693548       -2.65346323
 C           -1.95748844        2.25192093       -2.12473978
 C            0.73034535        0.94942421       -3.81303543
 C            0.26704174       -0.36136595       -3.89851127
 C           -0.23129389        2.03156743       -3.69882390
 C           -1.61712802        1.70394322       -3.42904443
 C           -1.66492768       -1.87625012       -3.74022469
 C           -2.91806658       -1.62593579       -3.05067823
 C           -3.07326635       -0.18768046       -2.91913296
 C           -1.09390807       -0.59212328       -4.10841018
 C           -2.06566409        0.43583335       -3.75567459
