   70
C70 / DATE: 7/ 1/2024 / Origin: Program Fullerene / C70 from database
 C            1.36048200       -0.14261764        4.52946989
 C            2.61276016       -0.33028453        3.82003012
 C            2.54701370       -1.60249113        3.12239612
 C            0.51690687       -1.29548439        4.25998723
 C            1.23482376       -2.17734793        3.35685083
 C           -0.79271132       -0.81210154        3.85527666
 C            0.57452135        1.05144551        4.27107207
 C           -0.79254539        0.63279160        4.00204191
 C            1.13118646        2.09479633        3.53830714
 C            3.03729516        0.67560661        2.86484371
 C            2.40330336        1.91050223        2.84685224
 C            2.96873839       -1.38877112        1.74710583
 C            3.31723287        0.01147102        1.59999852
 C            2.25319637       -2.01004366        0.73169089
 C            0.55087504       -2.70690894        2.27072874
 C            1.25042700       -2.91105589        1.08225756
 C           -1.39986752       -1.39228536        2.74358437
 C           -0.83400721       -2.54964853        2.21045637
 C           -2.29044684       -0.64520282        1.96332900
 C           -1.59409019        1.39282421        3.16226300
 C           -2.44049833        0.71937739        2.19356158
 C            0.27797339        2.91964089        2.69570458
 C           -1.05570783        2.58522638        2.52373453
 C            2.33091616        2.63505349        1.59372981
 C            1.05739503        3.33256901        1.54448871
 C            3.01399368        0.66247521        0.40668169
 C            2.80044889        2.04375837        0.42447236
 C            2.23227238       -1.43454236       -0.53989792
 C            2.59934664       -0.08908952       -0.70074251
 C            1.62401826       -2.13346917       -1.58808117
 C            0.63649389       -3.64565163        0.07946208
 C            0.83298140       -3.24289605       -1.30191049
 C           -1.53092623       -3.23833734        1.22721991
 C           -0.76389637       -3.98479097        0.24728716
 C           -2.75954532       -1.17692007        0.76023836
 C           -2.58264580       -2.53749526        0.51495498
 C           -3.08506452       -0.31707133       -0.29508024
 C           -2.60085273        1.60450607        1.05622916
 C           -1.64782042        2.69027235        1.20078091
 C           -2.78632441        1.04455365       -0.19847445
 C            0.45455234        3.49275075        0.29980496
 C           -0.86345747        3.04670190        0.10489594
 C            2.49412775        2.68841087       -0.76641492
 C            1.31896205        3.54580299       -0.78887908
 C            2.44742650        0.54184353       -1.93846922
 C            2.49161375        1.93027330       -2.00007651
 C            1.46657138       -1.52437794       -2.82531630
 C            1.91894057       -0.16253003       -3.01583439
 C            0.20682330       -1.68681936       -3.53693965
 C           -0.43103865       -3.40989642       -2.00601214
 C           -1.42091543       -3.84928822       -1.03932134
 C           -2.61010903       -3.04293402       -0.84999712
 C           -0.79649105       -2.47160585       -2.96794179
 C           -3.43109485       -0.85129179       -1.53307298
 C           -2.99011098       -2.19013038       -1.87245955
 C           -2.13151469       -2.06441256       -3.04215696
 C           -3.26521304       -0.03670499       -2.72273600
 C           -2.47443165       -0.80346849       -3.67619364
 C           -2.31851713        1.73292166       -1.31894019
 C           -1.30597017        2.68758940       -1.17539670
 C           -2.64801845        1.26848440       -2.58996652
 C            0.77845806        3.52153564       -2.12892140
 C            1.61017646        2.62852048       -2.92004862
 C           -0.59028293        3.09745676       -2.29823742
 C            0.99034824        0.49433452       -3.92774134
 C           -0.11095544       -0.42010698       -4.18107835
 C           -1.41483869        0.05750040       -4.16404318
 C           -1.68151779        1.39788589       -3.66531611
 C            0.73065958        1.84965472       -3.77173515
 C           -0.63183433        2.28953669       -3.50435556
