   70
C70 / DATE: 7/ 1/2024 / Origin: Program Fullerene / C70 from database
 C            1.66386648       -0.03722274        4.68410489
 C            0.83277559       -1.20437560        4.45613890
 C            1.35971638       -1.91542574        3.30164576
 C            2.67515958       -0.01054290        3.64566459
 C            2.56172528       -1.22829727        2.86464270
 C            2.56411343        1.25094049        2.93901014
 C            0.82696123        1.13591747        4.51063166
 C            1.34048963        1.89597789        3.38098481
 C           -0.54999031       -0.76529416        4.42935728
 C           -0.55341264        0.69269752        4.47560188
 C           -1.42895401       -1.42530791        3.57961254
 C            0.47410604       -2.39126891        2.33981514
 C           -0.89621929       -2.36028240        2.59955353
 C            0.91003394       -2.53492758        1.02201515
 C            2.81843504       -1.14106721        1.50215404
 C            2.13951252       -1.98980748        0.62874806
 C            2.84449331        1.25052977        1.58349586
 C            3.30142223        0.06623383        1.00595204
 C            2.17590509        2.16312876        0.77461194
 C            0.44333003        2.37841114        2.42553845
 C            0.85774022        2.49865940        1.09219386
 C           -1.44037113        1.39737545        3.67411504
 C           -0.91373238        2.37186382        2.72674105
 C           -2.50591405       -0.68789773        2.93772454
 C           -2.52836360        0.69497851        3.01451149
 C           -1.83211395       -2.40877518        1.48982394
 C           -2.78983096       -1.33137924        1.66463535
 C            0.00284629       -2.95787065        0.05349007
 C           -1.35165746       -2.66376774        0.21484699
 C            0.48030355       -3.28704935       -1.20661207
 C            2.49648146       -1.98253748       -0.72522918
 C            1.73742526       -2.70839845       -1.63963752
 C            3.72811224        0.10741808       -0.31222741
 C            3.32314146       -0.96618525       -1.20535380
 C            2.63711752        2.33358353       -0.52214077
 C            3.58626725        1.36000380       -1.03205855
 C            1.68582989        2.61596784       -1.57801159
 C           -0.08653065        2.67918230        0.06410015
 C            0.32760995        2.66057911       -1.27674235
 C           -1.87871987        2.50143015        1.65942490
 C           -2.87671247        1.45815913        1.83330731
 C           -1.45042730        2.78610486        0.36928896
 C           -3.14420498       -0.56694547        0.55336353
 C           -3.34664078        0.81587646        0.69366846
 C           -2.09015614       -2.21043788       -0.87731764
 C           -2.95508588       -1.12202027       -0.71977368
 C           -0.43585515       -3.26295961       -2.33252148
 C           -1.72947765       -2.63339680       -2.15352662
 C            1.53741112       -2.16942666       -2.97708931
 C            0.23219746       -2.60225643       -3.44170486
 C            3.04782407       -0.38265638       -2.51063518
 C            3.22826312        1.05377659       -2.40300441
 C            2.13142275        1.92036694       -2.77745221
 C            1.98722113       -0.88262891       -3.26006402
 C            1.17948164        1.42682055       -3.65260270
 C            1.17091935        0.00350120       -3.97294204
 C           -0.60111427        2.45302524       -2.30033115
 C           -0.19965621        1.83977972       -3.48680999
 C           -2.38958563        2.61067229       -0.64298741
 C           -3.42254753        1.60309650       -0.44888311
 C           -1.95697979        2.53765842       -2.02157565
 C           -3.41668160       -0.44028473       -1.84298974
 C           -3.68131124        0.97401853       -1.72430319
 C           -2.87792815        1.65740798       -2.72294497
 C           -1.94983287       -1.75626493       -3.28956302
 C           -0.68235945       -1.62148245       -3.99264108
 C           -0.20148328       -0.35817624       -4.31053046
 C           -1.03755101        0.81057754       -4.08273618
 C           -2.77107222       -0.64995307       -3.12814232
 C           -2.33718763        0.65084999       -3.61942931
