   70
C70 / DATE: 7/ 1/2024 / Origin: Program Fullerene / C70 from database
 C            1.26770130       -0.11687809        4.65784630
 C            2.57783586       -0.24045652        4.04780439
 C            2.64233086       -1.54189950        3.41189894
 C            0.47432994       -1.26971374        4.25197155
 C            1.30414535       -2.11118890        3.41985068
 C           -0.77216944       -0.78016403        3.70745442
 C            0.48090333        1.07341162        4.39220139
 C           -0.85662678        0.63315554        4.03112834
 C            1.05913763        2.13816040        3.70681220
 C            2.99607519        0.74768701        3.06853020
 C            2.31100890        1.94946071        2.97870364
 C            3.30762179       -1.37892100        2.13063082
 C            3.34463029        0.04568835        1.84264095
 C            2.94551277       -2.23934791        1.11051930
 C            0.79916341       -2.60511254        2.22090438
 C            1.72783172       -3.01558350        1.27573578
 C           -1.18510974       -1.21358307        2.44951695
 C           -0.48390165       -2.23303467        1.78650033
 C           -2.13912458       -0.46408996        1.75885195
 C           -1.65321775        1.44694865        3.23972468
 C           -2.41515204        0.84262200        2.16189340
 C            0.21684294        3.01567049        2.90833949
 C           -1.13125714        2.71356093        2.74647977
 C            2.15053576        2.56410301        1.67561612
 C            1.00028101        3.44380700        1.76028294
 C            2.86937481        0.51513064        0.61244868
 C            2.34866464        1.80813586        0.51861644
 C            2.91404343       -1.73221987       -0.24711458
 C            2.72938860       -0.37143877       -0.46172383
 C            1.27053048       -3.36804826       -0.04426192
 C            2.11205023       -2.66961493       -1.00231351
 C           -0.94767633       -2.67984481        0.53814325
 C           -0.08944266       -3.41390966       -0.29801409
 C           -2.53058226       -0.86339325        0.48484959
 C           -2.10748151       -2.10166489        0.00561188
 C           -3.02601029        0.09877761       -0.40225409
 C           -2.62028372        1.85598141        1.14412091
 C           -1.78537789        2.99576195        1.47713803
 C           -2.73278859        1.43609924       -0.17476918
 C            0.35987377        3.79881996        0.58426853
 C           -1.08253398        3.63230255        0.46588103
 C            1.77710587        2.24005157       -0.67840839
 C            0.93459653        3.35334654       -0.66978661
 C            2.08681008        0.04485556       -1.63108525
 C            1.77832973        1.40057434       -1.79246229
 C            1.52374456       -2.25349911       -2.18748362
 C            1.64057418       -0.91235881       -2.56248662
 C           -0.43628194       -3.59843182       -1.62994266
 C            0.42224404       -2.98602380       -2.63160207
 C           -2.64378087       -2.58589193       -1.18485622
 C           -1.80714044       -3.39979977       -2.03480340
 C           -3.40630414       -0.27078412       -1.68030515
 C           -3.36871447       -1.67076897       -2.04586039
 C           -2.88965823        0.50758519       -2.78990984
 C           -2.18678959        2.19736319       -1.21547255
 C           -1.36563938        3.28603598       -0.91923713
 C           -0.12469891        3.44545219       -1.65403232
 C           -2.14786460        1.65821868       -2.50899247
 C            1.15520991        1.84618508       -2.95637153
 C            0.02678867        2.75178369       -2.83896359
 C           -1.11896870        2.04041697       -3.37340078
 C            1.04302197       -0.50695633       -3.75264032
 C            0.82569247        0.89980682       -3.99978913
 C           -0.58388580        1.08000623       -4.32144821
 C           -0.42364894       -2.46265727       -3.69040025
 C           -1.79850064       -2.80575612       -3.36290917
 C           -2.80840730       -1.76665327       -3.38420513
 C           -2.42969715       -0.43005904       -3.80676470
 C           -0.13204522       -1.21574110       -4.23024593
 C           -1.19316932       -0.23147762       -4.40860031
