   70
C70 / DATE: 7/ 1/2024 / Origin: Program Fullerene / C70 from database
 C            1.74304871       -0.14645818        5.23474989
 C            0.90745544       -1.31780914        5.43359058
 C            1.29768347       -2.30968966        4.45059998
 C            2.60068595       -0.39749099        4.08883851
 C            2.34206629       -1.74001525        3.61311277
 C            2.43064342        0.69661801        3.15565614
 C            0.87420107        0.96392043        4.88988532
 C            1.37323553        1.55495838        3.65720397
 C           -0.46576644       -0.94257297        5.14270573
 C           -0.49896723        0.49216667        4.92447716
 C            0.08888710       -2.78585387        3.80114444
 C           -0.96052280       -1.82068084        4.09004604
 C            0.20708257       -3.25463705        2.50571025
 C            2.26361409       -1.95570118        2.24026453
 C            1.44766086       -2.99014300        1.79835646
 C            2.44317209        0.42081337        1.79606386
 C            2.54015780       -0.90330439        1.35799197
 C            1.88857699        1.36365207        0.93367519
 C            0.45857390        2.06701128        2.73992423
 C            0.82979581        2.14692429        1.39428388
 C           -1.37341115        0.98449026        3.97030089
 C           -0.89801978        1.99915852        3.04615123
 C           -1.70149566       -1.26676318        3.04116325
 C           -2.14349360        0.04487343        3.16832848
 C           -0.85520161       -2.96857075        1.56134226
 C           -1.67647359       -1.86527336        1.77365142
 C            1.15090080       -3.08912493        0.38779019
 C           -0.28800188       -3.17598426        0.24201837
 C            2.47679537       -1.13306602       -0.01701698
 C            1.82388047       -2.27300732       -0.50025629
 C            2.06242255        1.18521440       -0.43905593
 C            2.58856714       -0.03308995       -0.87039751
 C            1.35854325        1.99982280       -1.33814825
 C           -0.08891611        2.63496728        0.46925484
 C            0.31417389        2.80076832       -0.85454549
 C           -1.85596808        2.02377771        1.96205988
 C           -2.57514106        0.76615522        1.98984528
 C           -1.45466902        2.47772811        0.72037036
 C           -2.20957554       -1.20207811        0.65750347
 C           -2.72445488        0.09554214        0.78374557
 C           -0.86084462       -2.52868618       -0.84457872
 C           -1.97874813       -1.72580532       -0.62372935
 C            1.33285899       -2.22699082       -1.79663201
 C           -0.05933890       -2.28067159       -1.96603616
 C            2.68386647       -0.28502240       -2.23222243
 C            2.09604530       -1.52017898       -2.70793632
 C            1.54264712        1.82458660       -2.72010062
 C            2.30611314        0.75019092       -3.17165488
 C            0.76639471        2.54180737       -3.63463472
 C           -0.64889369        3.27420640       -1.73897242
 C           -0.37966157        3.27799978       -3.15685487
 C           -2.27376418        2.15671277       -0.35434974
 C           -2.85363665        0.88098553       -0.36460996
 C           -2.00798456        2.81384393       -1.54622351
 C           -2.58265620       -1.12055879       -1.71987811
 C           -3.08249806        0.23152101       -1.57133478
 C           -0.64969927       -1.73135091       -3.11087601
 C           -1.93911775       -1.21078630       -3.02119923
 C            1.56807239       -1.28771667       -4.03079531
 C            1.93576864        0.06605300       -4.40133819
 C            0.14024423       -1.41396589       -4.21585733
 C            0.35454234        1.91702733       -4.88270953
 C            0.85414160        0.59746206       -5.20298125
 C           -0.26332796       -0.33408351       -5.10290099
 C           -1.55733146        2.74508596       -3.82999846
 C           -2.45732368        2.25149025       -2.80288195
 C           -2.88300245        0.93124240       -2.82994907
 C           -2.29321845       -0.01359994       -3.77003443
 C           -1.09635765        1.83911040       -4.86381678
 C           -1.45503585        0.43284325       -4.78729880
