   70
C70 / DATE: 7/ 1/2024 / Origin: Program Fullerene / C70 from database
 C            1.03396311       -0.15112148        5.02939106
 C            2.30216639       -0.33091545        4.34483368
 C            2.19276815       -1.51359406        3.50896661
 C            0.16846739       -1.25826943        4.65628455
 C            0.82917104       -2.00026917        3.59788458
 C           -1.15169789       -0.72427040        4.40409165
 C            0.28936647        1.08231197        4.82950997
 C           -1.07914303        0.72498352        4.49776490
 C            0.88262666        2.14017656        4.15151934
 C            2.81346352        0.74800370        3.52032694
 C            2.23689202        2.00569035        3.62232848
 C            2.71852011       -1.18734162        2.19452391
 C            3.11481607        0.20767996        2.19832958
 C            2.05969331       -1.67251137        1.07705867
 C            0.15348715       -2.26658452        2.40876055
 C            0.90827915       -2.43898880        1.24713932
 C           -1.79293704       -1.04377921        3.14617514
 C           -1.20297568       -1.95077162        2.27434155
 C           -1.68745536        1.27960492        3.29457529
 C           -2.31173138        0.18443914        2.58126674
 C            0.10561018        2.86297505        3.15826294
 C           -1.00785339        2.25430251        2.57260172
 C            2.34641702        2.90257038        2.49000685
 C            1.05787972        3.55615279        2.32323680
 C            2.88556110        0.98310993        1.05613535
 C            2.72318057        2.35588136        1.19627377
 C            2.23892590       -1.01491803       -0.13424003
 C            2.46453428        0.36419880       -0.13022427
 C            1.74277267       -1.62612825       -1.27764927
 C            0.26610706       -2.90036789        0.10314910
 C            0.92845952       -2.74826836       -1.11305357
 C           -1.74987328       -2.04477239        1.00083642
 C           -1.12707780       -2.89530871        0.10203255
 C           -2.42244070        0.25282649        1.19993405
 C           -2.43931090       -0.94150350        0.48605064
 C           -1.22928448        2.36592156        1.18952589
 C           -2.03841329        1.41451462        0.53485063
 C            0.79316836        3.62316878        0.90986875
 C            1.94122226        3.06824413        0.21240991
 C           -0.46545662        3.27527626        0.44065662
 C            2.03863102        1.14112107       -1.22202307
 C            1.69965620        2.48671236       -1.02355999
 C            1.68427421       -0.89839950       -2.46300730
 C            1.62490649        0.49841590       -2.40223814
 C            1.35352339       -1.56265246       -3.64050370
 C            0.39290023       -3.37582038       -2.22979460
 C            0.71843233       -2.86336073       -3.54695595
 C           -1.79175895       -3.15099872       -1.08807037
 C           -1.02574932       -3.66515214       -2.20691135
 C           -2.71623958       -0.90177201       -0.88008407
 C           -2.65830793       -2.10171945       -1.59222054
 C           -2.21522106        1.47040362       -0.85166568
 C           -2.60629034        0.31982390       -1.55468831
 C           -0.59452445        3.28018836       -0.93780947
 C            0.60398778        2.98962688       -1.70779681
 C           -1.66655838        2.53507339       -1.55175566
 C            0.85624832        1.20652796       -3.34301921
 C            0.18823070        2.34842263       -2.92721074
 C           -1.26602839        2.34296792       -2.93122924
 C            0.68091788       -0.83280909       -4.69172984
 C            0.31905215        0.54446305       -4.44262008
 C           -0.51246543       -2.81763287       -4.32233003
 C           -1.60876540       -3.13528020       -3.42478737
 C           -2.55526132       -2.09543078       -3.04137519
 C           -0.53562836       -1.55709476       -5.03439918
 C           -2.65968709        0.35295984       -2.95320145
 C           -1.90196230        1.36500934       -3.67285312
 C           -1.11078727        0.67472282       -4.67654071
 C           -2.57011709       -0.88287796       -3.71618507
 C           -1.65727636       -0.65778652       -4.82917113
