   70
C70 / DATE: 7/ 1/2024 / Origin: Program Fullerene / C70 from database
 C            1.50866856        0.05737317        4.60777478
 C            0.70105558       -1.12760923        4.37836780
 C            1.32914272       -1.90289655        3.33952207
 C            2.59781013        0.04332180        3.64706392
 C            2.52078895       -1.18613565        2.90221996
 C            2.54606724        1.27391439        2.90339562
 C            0.68077433        1.21669154        4.31978335
 C            1.32671028        1.97500747        3.28033458
 C           -0.65552431       -0.69900022        4.16188132
 C           -0.66037014        0.75347546        4.07391961
 C           -1.44778794       -1.38752339        3.25442586
 C            0.53678664       -2.51395918        2.37042888
 C           -0.83301567       -2.19534621        2.27269157
 C            1.20677373       -2.98669259        1.24979292
 C            2.81348758       -1.17608594        1.54229584
 C            2.42240067       -2.30255167        0.83755373
 C            2.88819624        1.26795714        1.55717314
 C            2.95441021        0.04724045        0.85519220
 C            2.54096612        2.41436226        0.86321629
 C            0.55810759        2.53366700        2.26229253
 C            1.27728565        3.05387631        1.19744772
 C           -1.40958438        1.33469216        3.05328560
 C           -0.75109347        2.06195010        2.04147726
 C           -2.64175863       -0.75485364        2.94457852
 C           -2.60033839        0.68666546        2.75422460
 C           -3.49557974       -1.31863094        1.93286068
 C           -1.55375394       -2.56475350        1.11653326
 C           -2.91072162       -2.25635213        1.00642936
 C            0.46856801       -3.33544558        0.05772243
 C           -0.88771794       -3.06971099       -0.00560989
 C            2.46676417       -2.29608744       -0.60171981
 C            1.30958192       -3.03007619       -1.09063365
 C            2.98022958        0.05731194       -0.55772569
 C            2.85970373       -1.15010763       -1.27007216
 C            2.68675326        2.45054787       -0.56724023
 C            3.00984541        1.28475918       -1.24677391
 C            0.60721849        3.35759370       -0.04350282
 C            1.62172585        3.29740115       -1.07916586
 C           -1.33695033        2.17769182        0.75992341
 C           -0.64329590        2.80933767       -0.28617425
 C           -3.28785427        0.97948766        1.52098742
 C           -4.03618334       -0.21432912        1.15931070
 C           -2.62701624        1.68458881        0.52597731
 C           -3.47124376       -1.95677429       -0.30001566
 C           -4.05916509       -0.62558823       -0.23135277
 C           -1.48382221       -3.00359965       -1.26226683
 C           -2.76171599       -2.33545175       -1.42938685
 C            0.72400467       -2.64393694       -2.29632764
 C           -0.66445800       -2.69386937       -2.42406254
 C            2.62918029       -1.13492560       -2.63879214
 C            1.44854244       -1.81359813       -3.15141461
 C            2.93027225        1.32163001       -2.63722453
 C            2.79328816        0.09171209       -3.37858635
 C            1.22275366        3.12824831       -2.39248102
 C            2.04600263        2.29681705       -3.25475660
 C           -1.08077924        2.68312321       -1.61117786
 C           -0.16708289        2.79811272       -2.66014583
 C           -3.08688472        1.55445398       -0.78024944
 C           -3.72874614        0.31509549       -1.19662179
 C           -2.26404434        2.01070059       -1.87659582
 C           -2.63562623       -1.41589484       -2.55121034
 C           -1.35030071       -1.65629428       -3.18177344
 C           -3.09582762       -0.11545168       -2.43217579
 C           -2.26161137        0.97489484       -2.89915041
 C            0.73581287       -0.85620809       -3.98000740
 C            1.65019183        0.22925021       -4.27058890
 C            1.16528013        1.58323900       -4.16375546
 C           -0.19402983        1.79440255       -3.71297757
 C           -0.60683809       -0.60122385       -3.70558127
 C           -1.07442912        0.72036995       -3.58278707
