   70
C70 / DATE: 7/ 1/2024 / Origin: Program Fullerene / C70 from database
 C            1.48175156        0.28403292        5.00422858
 C            0.66558500       -0.90558815        4.84280589
 C            1.46019578       -1.88768898        4.14441333
 C            2.63795021        0.14201475        4.13437159
 C            2.67230556       -1.22788883        3.67828152
 C            2.57642267        1.20080910        3.14362142
 C            0.71139992        1.41721177        4.52378369
 C            1.52488601        2.11766294        3.55384816
 C           -0.59644039       -0.50443726        4.25433895
 C           -0.59293974        0.93924889        4.09858768
 C           -1.15956035       -1.26090362        3.23594477
 C            0.86995275       -2.56274451        3.00381007
 C           -0.46161727       -2.33886205        2.66695566
 C            2.77599107       -1.47900445        2.25565755
 C            1.84357194       -2.53893881        1.93442974
 C            2.71869571        0.90336785        1.78444086
 C            2.89188408       -0.42205109        1.35827611
 C            2.33733865        1.87272746        0.84914578
 C            0.86872135        2.83048899        2.56676407
 C            1.46163868        2.88124585        1.24632959
 C           -1.16621130        1.48941711        2.94828545
 C           -0.55793605        2.60186572        2.36610675
 C           -2.15814954       -0.65890575        2.48497583
 C           -2.02532354        0.70084827        2.17331123
 C           -2.90953293       -1.48305488        1.66449870
 C           -0.89637666       -2.82382229        1.42983792
 C           -2.23493909       -2.62976692        1.09214926
 C            1.37191839       -2.61622616        0.63121987
 C            0.05458913       -3.02038594        0.41858136
 C            2.71277511       -0.71020116        0.01053969
 C            2.00772530       -1.86310438       -0.35670351
 C            2.45616850        1.60062847       -0.51622051
 C            2.84589628        0.31965537       -0.90599174
 C            1.74834578        2.40194812       -1.41814764
 C            0.40438571        3.27751365        0.34060525
 C           -0.85282644        2.93979931        0.98242621
 C            0.55125874        2.97672308       -0.99988993
 C           -2.48680495        1.18471143        0.94012195
 C           -1.77816837        2.18327375        0.27282525
 C           -3.73813129       -0.88824168        0.64154097
 C           -3.45518097        0.47452073        0.24479756
 C           -2.67357912       -2.76382132       -0.28672916
 C           -3.65665281       -1.72971920       -0.54030790
 C           -0.35291029       -3.25067978       -0.89139678
 C           -1.74195413       -3.05618985       -1.26843748
 C            1.64176819       -2.05330321       -1.69274967
 C            0.47819086       -2.76354543       -1.98129819
 C            2.86808643       -0.01081613       -2.25322846
 C            2.17057498       -1.21398899       -2.67012875
 C            1.96133696        2.23909005       -2.78306063
 C            2.60448345        1.02304049       -3.23456569
 C            0.86338613        2.51826519       -3.69550561
 C           -0.59481409        2.75114598       -1.75342145
 C           -1.71514395        2.18073531       -1.12832164
 C           -0.46305322        2.72113092       -3.13727177
 C           -3.45024091        0.51274911       -1.20435461
 C           -3.47976894       -0.86064568       -1.68652138
 C           -2.63419089        1.42034212       -1.86829294
 C           -1.76701679       -2.33185054       -2.53456876
 C           -0.40199501       -2.29181193       -3.04015312
 C           -2.60389778       -1.22601124       -2.70694930
 C            1.35527546       -0.87017486       -3.82552781
 C            1.78103458        0.44267144       -4.28207355
 C            0.78259806        1.42285867       -4.65039777
 C            0.00570249       -1.22872296       -3.83783388
 C           -1.38420510        1.92613238       -3.91452745
 C           -2.37890753        1.15150233       -3.20834754
 C           -2.23173164       -0.23767313       -3.61300110
 C           -0.60107721        1.00459230       -4.72300399
 C           -0.96251318       -0.34320066       -4.31292851
