   70
C70 / DATE: 7/ 1/2024 / Origin: Program Fullerene / C70 from database
 C            1.22612459       -0.09559004        4.16462093
 C            2.48267191       -0.37726295        3.51239044
 C            2.43140963       -1.75237771        3.04171564
 C            0.40356548       -1.29185868        4.06472293
 C            1.05800516       -2.19271098        3.14446966
 C           -0.94136230       -0.86360566        3.75982721
 C            0.42588450        1.01273373        3.68333762
 C           -0.95470408        0.59142793        3.76649959
 C            0.82411763        1.73141617        2.56307086
 C            2.88048345        0.44497166        2.38803124
 C            2.04211452        1.45073809        1.92131069
 C            3.05854641       -1.78660134        1.73731195
 C            3.49665070       -0.43494345        1.41854917
 C            2.47650490       -2.54008377        0.72414434
 C            0.39866760       -2.56785054        1.97833034
 C            1.15572849       -2.98606980        0.87882655
 C           -1.65984616       -1.51826514        2.76547146
 C           -0.97199379       -2.30074292        1.82139125
 C           -2.87597458       -0.93922302        2.41216801
 C           -1.90562595        1.22885783        2.97729410
 C           -3.03959921        0.48310865        2.66099465
 C           -0.13150182        2.51049425        1.91217212
 C           -1.49764890        2.25991396        2.11491931
 C            0.27941610        3.34378744        0.87514740
 C            2.27751107        1.95861717        0.64479250
 C            1.54737014        3.06455910        0.22432886
 C            3.51892121       -0.05008001        0.08084756
 C            3.01650434        1.20602471       -0.28003745
 C            2.98757623       -2.35273755       -0.55561654
 C            3.57057259       -1.06119209       -0.87742692
 C            2.24594677       -2.81337374       -1.71468827
 C            0.50370173       -3.59833016       -0.18570361
 C            1.06870942       -3.51632860       -1.52400594
 C           -1.60015099       -2.63785689        0.61732336
 C           -0.93542515       -3.44915487       -0.29624929
 C           -3.45326334       -1.21443239        1.11093909
 C           -2.67813283       -1.87512062        0.17148880
 C           -4.00377075        0.99227433        1.70936775
 C           -4.20034463       -0.03534611        0.69955647
 C           -2.43573863        2.87988875        1.28472732
 C           -3.70936056        2.23311817        1.02908175
 C           -0.66703290        3.73986802       -0.15480370
 C           -2.00527923        3.43467121        0.01585111
 C            1.38154285        3.32788657       -1.19343166
 C           -0.04590449        3.45219301       -1.43589110
 C            3.04202155        1.58321819       -1.62407876
 C            2.15598885        2.63076081       -2.10510243
 C            3.26252254       -0.76526630       -2.26503183
 C            2.30972714       -1.76752599       -2.72997448
 C            3.11028002        0.55594123       -2.65180892
 C            1.15724034       -1.38079677       -3.42453192
 C           -0.01911190       -3.31296685       -2.45750028
 C           -1.25963966       -3.31217448       -1.70426810
 C           -0.00738398       -2.13245383       -3.30275363
 C           -2.70246660       -1.43047141       -1.15184211
 C           -2.03585436       -2.16009830       -2.12007583
 C           -1.27417936       -1.43855106       -3.12383436
 C           -3.90288927        0.55310857       -0.59316846
 C           -3.78491362        1.98156026       -0.40257463
 C           -2.67162705        2.66812330       -1.02264269
 C           -2.98894178       -0.09580033       -1.41304536
 C           -0.67257666        2.57426228       -2.32158993
 C           -1.28915491       -0.04256153       -3.12644783
 C           -1.88970422        2.00052918       -1.96138484
 C           -2.11979512        0.64126159       -2.22694930
 C            1.52072621        2.14745301       -3.31756744
 C            2.11710600        0.86915517       -3.65848066
 C            1.04267785       -0.07671627       -3.89705562
 C            0.07598339        1.98974296       -3.33244562
 C           -0.22162253        0.62485486       -3.72301244
