   70
C70 / DATE: 7/ 1/2024 / Origin: Program Fullerene / C70 from database
 C            1.42695444        0.06658375        4.57644340
 C            0.66207321       -1.12370247        4.25396177
 C            1.44259819       -1.92831422        3.34447511
 C            2.62502591        0.05602640        3.75502189
 C            2.65485633       -1.18649259        3.02656856
 C            2.65016298        1.27870705        2.99474339
 C            0.63277047        1.21967845        4.18557085
 C            1.42917837        2.01533983        3.28999718
 C           -0.64441429       -0.70078447        3.81970122
 C           -0.64218386        0.74645336        3.70651184
 C           -1.27264805       -1.40398962        2.80877365
 C            0.79715367       -2.60324669        2.30903219
 C           -0.56450737       -2.35507129        2.05509714
 C            1.60391907       -3.07273446        1.27375105
 C            3.08961337       -1.19344980        1.70703157
 C            2.85366891       -2.37476456        1.01749420
 C            3.08754093        1.25344109        1.67272358
 C            3.17430706        0.02186278        0.99155832
 C            2.85383956        2.41598194        0.94609834
 C            0.81255580        2.67307123        2.23509304
 C            1.68652871        3.20814074        1.30202878
 C           -1.19452957        1.30876894        2.55457127
 C           -0.47086540        2.26126478        1.81271962
 C           -2.34186920       -0.77163348        2.20152733
 C           -2.21729429        0.59602084        1.92633746
 C           -3.14756402       -1.55581721        1.39958775
 C           -1.12882736       -2.79621653        0.84742618
 C           -2.48615696       -2.58411305        0.62096630
 C            1.01190504       -3.38732192       -0.01234684
 C           -0.29867039       -3.00560256       -0.24944268
 C            3.12395461       -2.44096218       -0.39531625
 C            2.01588577       -3.14377069       -1.02581163
 C            3.23722496        0.00738933       -0.41795601
 C            3.31977203       -1.20211484       -1.10829019
 C            2.94047056        2.39638571       -0.49504843
 C            3.00861554        1.17660016       -1.15001924
 C            1.16028667        3.80348285        0.10252571
 C            2.03122643        3.41617355       -0.99331413
 C           -0.96392263        2.66423125        0.55527963
 C           -0.19523664        3.48209895       -0.27386686
 C           -2.80519727        1.12322844        0.77938973
 C           -2.06848792        2.01255620       -0.00453880
 C           -4.12854700       -0.90937202        0.55854557
 C           -3.92780317        0.49001458        0.25037802
 C           -2.95686417       -2.45150282       -0.74669365
 C           -4.15989019       -1.63419650       -0.69730011
 C           -0.67418892       -2.51781331       -1.50912684
 C           -2.02390244       -2.26595672       -1.76806499
 C            1.64041067       -2.39525390       -2.20552780
 C            2.62692587       -1.34290718       -2.37581978
 C            0.29897580       -2.10020346       -2.43070733
 C            2.55318191        1.09659839       -2.46751436
 C            2.25818311       -0.19736209       -3.05800250
 C            1.19015551        3.10394877       -2.13207071
 C           -0.19466081        3.22657394       -1.70329535
 C            1.54570269        2.03653002       -2.93953494
 C           -2.23478701        2.03097777       -1.39703493
 C           -1.14911315        2.35481734       -2.20965498
 C           -4.24928627        0.66283689       -1.15091564
 C           -4.39597482       -0.66235865       -1.74224714
 C           -3.33502204        1.41646578       -1.98075502
 C           -2.37563170       -1.55541913       -2.91579440
 C           -3.55890978       -0.70954145       -2.92110983
 C           -3.11320915        0.64658802       -3.18528945
 C           -0.01207512       -1.11340362       -3.36751570
 C            0.92693174       -0.11914929       -3.63874060
 C            0.49904690        1.26864610       -3.58703354
 C           -0.83570839        1.53210838       -3.29990388
 C           -1.34635142       -0.83098128       -3.63422325
 C           -1.75730204        0.56593044       -3.69110384
