   70
C70 / DATE: 7/ 1/2024 / Origin: Program Fullerene / C70 from database
 C            1.44126626       -0.01253404        5.08250588
 C            0.59059664       -1.17328879        5.27049215
 C            1.15927352       -2.26329093        4.50210152
 C            2.49016859       -0.36911285        4.14045270
 C            2.30194549       -1.75266749        3.76015383
 C            2.50283029        0.63118334        3.09033589
 C            0.63996419        1.02108027        4.45715514
 C            1.39858695        1.54044380        3.33695257
 C           -0.71015614       -0.87532759        4.69294382
 C           -0.67643596        0.47785679        4.17935320
 C            0.07849453       -2.87614891        3.75272812
 C           -1.04192037       -1.94433112        3.77228228
 C            0.39977397       -3.48623768        2.54957295
 C            2.41828166       -2.09350208        2.41608575
 C            1.69217684       -3.19046965        1.95237535
 C            2.72512049        0.22688412        1.77481417
 C            2.86972935       -1.13771217        1.49688591
 C            2.33923368        1.09640710        0.74549132
 C            0.69721008        1.98666696        2.22943086
 C            1.38332403        2.07485110        1.02442032
 C           -1.22195032        0.72840223        2.92488213
 C           -0.67681935        1.75653571        2.16686025
 C           -1.66457789       -1.62364161        2.56766325
 C           -1.91958517       -0.27779021        2.25619912
 C           -0.57077505       -3.45471142        1.47075104
 C           -1.64194713       -2.56938552        1.54300596
 C            1.57426790       -3.42211938        0.52373146
 C            0.16076276       -3.56811205        0.21714409
 C            3.07991659       -1.52967492        0.17958667
 C            2.37175515       -2.69292983       -0.33621726
 C            2.61164092        0.75870232       -0.58233033
 C            3.07328455       -0.52456788       -0.86930254
 C            2.09531329        1.54355899       -1.61985214
 C            0.73343775        2.71365776       -0.02436206
 C            1.26610924        2.62390688       -1.30956623
 C           -1.32665886        2.13355263        1.00172830
 C           -0.62962424        2.96057154        0.13667953
 C           -2.52460981        0.03836325        1.03400850
 C           -2.30611561        1.29710906        0.46059109
 C           -2.34174788       -2.30305273        0.37718487
 C           -2.95307882       -0.99928218        0.22090659
 C           -0.37666111       -2.97154594       -0.92365824
 C           -1.72457576       -2.64170746       -0.89614902
 C            1.84395595       -2.33254940       -1.63651569
 C            2.61520034       -1.18872031       -2.07632983
 C            0.46448278       -2.34821875       -1.85486289
 C            2.08756591        1.02401989       -2.91560441
 C            2.10371129       -0.41299205       -3.09525887
 C            1.14940388        1.54243253       -3.89320138
 C            0.66328307        3.35629910       -2.33418383
 C            0.57334058        2.78280375       -3.66722346
 C           -1.33957538        3.55116999       -0.89098615
 C           -0.60445232        4.00134521       -2.05201026
 C           -2.78882766        1.58225204       -0.82897979
 C           -2.52424547        2.85382950       -1.35546524
 C           -3.09900103       -0.77043858       -1.20094952
 C           -2.26020146       -1.74054550       -1.88982475
 C           -3.12645243        0.52627294       -1.69222715
 C           -0.07035104       -1.53355747       -2.86574269
 C            0.80448800       -0.76317307       -3.63768490
 C            0.31911688        0.41930703       -4.32516954
 C           -1.45179186       -1.29693570       -2.92897968
 C           -2.90932924        0.65438654       -3.06283138
 C           -1.04791092        0.58487099       -4.48019135
 C           -1.94533120       -0.23527249       -3.68817904
 C           -0.75743583        3.04941744       -4.18626498
 C           -1.46912260        3.85027393       -3.20687792
 C           -2.64006820        3.09806567       -2.78313153
 C           -1.60595072        1.92671761       -4.53469588
 C           -2.77172656        1.96234972       -3.66264667
