   70
C70 / DATE: 7/ 1/2024 / Origin: Program Fullerene / C70 from database
 C            1.17271279       -0.12738941        4.57020917
 C            2.49110278       -0.34361924        4.01003363
 C            2.44032176       -1.57616510        3.23586233
 C            0.35245394       -1.27061348        4.20106225
 C            1.05884350       -2.00811170        3.18157112
 C           -0.96251563       -0.77758371        3.87528695
 C            0.43639040        1.07446863        4.21576322
 C           -0.92836062        0.67439174        3.93497813
 C            1.03037497        2.04516572        3.42104706
 C            3.07900228        0.67959293        3.16393304
 C            2.39515548        1.87216194        2.93908706
 C            3.13532043       -1.33784465        1.98934336
 C            3.70965270       -0.00567832        2.04911174
 C            2.55608940       -1.75244204        0.79665814
 C            0.45192043       -2.17107559        1.93848655
 C            1.24580433       -2.25335744        0.79362874
 C           -1.65828744       -1.35008634        2.81838939
 C           -0.93488966       -2.00566022        1.80694906
 C           -2.83628292       -0.70537927        2.47782149
 C           -1.68538009        1.36851024        2.99435910
 C           -2.86306078        0.74476686        2.59874819
 C            0.25327527        2.66449120        2.35879130
 C           -1.02961126        2.20467243        2.07676684
 C            2.48883750        2.52059348        1.64103399
 C            1.15594571        2.96053475        1.25944968
 C            3.91452718        0.67350485        0.85521396
 C            3.32510087        1.99238710        0.66670146
 C            3.11209142       -1.28634844       -0.39308508
 C            3.75576396       -0.05334858       -0.39582794
 C            2.62739975       -1.77859951       -1.59415816
 C            0.65819004       -2.61964181       -0.41294101
 C            1.43565883       -2.60114454       -1.56920377
 C           -1.53132967       -2.24036093        0.55693358
 C           -0.73312519       -2.67854901       -0.51288918
 C           -3.51220094       -1.06136812        1.25547221
 C           -2.87482388       -1.88710966        0.34059944
 C           -3.58705150        1.26835631        1.46274410
 C           -4.16455029        0.13801454        0.76116947
 C           -1.51201891        2.32881980        0.76749432
 C           -2.84796519        2.04843517        0.49868150
 C            0.72578028        2.77434825       -0.05220354
 C           -0.61372503        2.44979255       -0.29629652
 C            2.93361871        2.10174625       -0.72867074
 C            3.41024763        0.91551338       -1.41989166
 C            1.67905846        2.60436892       -1.06029976
 C            2.51528269       -0.88027018       -2.73477154
 C            2.72457002        0.49008606       -2.55441691
 C            0.80178018       -2.48925106       -2.87047683
 C            1.41844465       -1.36604953       -3.56423041
 C           -1.30920556       -2.97497593       -1.74784272
 C           -0.56555431       -2.69713853       -2.96484857
 C           -3.39559254       -1.90466369       -0.94993577
 C           -2.67970288       -2.59682431       -1.99609871
 C           -4.08747679        0.41552027       -0.65921223
 C           -3.22429120        1.57682337       -0.82517676
 C           -3.90805063       -0.66181840       -1.51149831
 C           -1.05310208        2.23126284       -1.60477099
 C           -2.26464968        1.57347641       -1.83244207
 C            1.25491333        2.44351256       -2.37284270
 C            1.88135913        1.40663641       -3.17939605
 C           -0.16535019        2.41073902       -2.65575489
 C            0.62678548       -0.46511531       -4.26490173
 C            0.90410669        0.95302366       -4.15129763
 C           -0.34939524        1.63322720       -3.86408745
 C           -1.37599409       -1.80544236       -3.78221216
 C           -2.69249041       -1.74221168       -3.17337893
 C           -3.20220316       -0.44832931       -2.75742803
 C           -2.38426489        0.66983111       -2.89764726
 C           -0.81707375       -0.63054160       -4.27262572
 C           -1.40830656        0.64533305       -3.89061983
