   70
C70 / DATE: 7/ 1/2024 / Origin: Program Fullerene / C70 from database
 C            1.10078879       -0.03811906        4.57079162
 C            2.29747581       -0.32564328        3.81319298
 C            2.15933629       -1.67153873        3.28278085
 C            0.25628082       -1.22181431        4.51317554
 C            0.77761716       -2.06196969        3.45498893
 C           -1.11204494       -0.77181934        4.42534334
 C            0.28081614        1.08572151        4.16910511
 C           -1.09583101        0.68394537        4.36982386
 C            0.59330436        1.79719852        3.01429309
 C            2.64129476        0.53542944        2.69785645
 C            1.81009062        1.59320636        2.34514895
 C            2.69420106       -1.65978313        1.94047591
 C            3.14665320       -0.31636206        1.64051343
 C            2.01068872       -2.32523656        0.94150985
 C            0.01219127       -2.30864954        2.31260042
 C            0.66293772       -2.66290075        1.12755365
 C           -1.91967434       -1.22300826        3.31207301
 C           -1.34311846       -1.95564332        2.26926640
 C           -2.08596778        1.08923428        3.38445794
 C           -2.79292321       -0.11420323        2.98483212
 C           -0.42154424        2.51007957        2.37773422
 C           -1.73295106        2.01381803        2.40247216
 C           -0.05878850        3.45117051        1.42454827
 C            1.99367990        2.17361069        1.08988058
 C            1.21676558        3.28065314        0.75447865
 C            3.03838108        0.12610449        0.32310305
 C            2.65409371        1.44792535        0.08818431
 C            2.45206871       -2.11473429       -0.35199889
 C            2.87801092       -0.82350531       -0.69750500
 C            1.94678711       -2.96248878       -1.31872592
 C           -0.09581748       -3.03581664        0.01408848
 C            0.58155899       -3.41847109       -1.14835900
 C           -2.03130775       -2.03244640        1.05452990
 C           -1.43713975       -2.64554099       -0.05269972
 C           -3.42393999       -0.12997712        1.75571926
 C           -3.17575695       -1.25225921        0.87095416
 C           -2.54197350        2.11886311        1.26389852
 C           -3.39231977        1.06770401        0.93073177
 C           -1.03376036        3.85085973        0.43302136
 C           -2.21249470        3.02938719        0.26619833
 C            1.04823545        3.66352686       -0.63753744
 C           -0.36133213        3.93813955       -0.85058983
 C            2.66204555        1.91919540       -1.21912811
 C            1.73418310        2.96365196       -1.61539448
 C            2.84742147       -0.39771861       -2.03390552
 C            2.73226763        0.96361671       -2.31337860
 C            2.16083757       -2.65198767       -2.71098772
 C            2.57131706       -1.30830115       -3.05415783
 C           -0.07144484       -3.32939797       -2.44306425
 C            0.92936304       -2.94619040       -3.42487293
 C           -2.08785758       -2.58167426       -1.28787271
 C           -1.34359178       -2.78636918       -2.51616807
 C           -3.53383632       -0.81077047       -0.46299522
 C           -3.47041142        0.64216070       -0.45912504
 C           -3.01915379       -1.49892943       -1.54303934
 C           -2.26638639        2.59792379       -1.12472723
 C           -1.09603718        3.12002135       -1.80174302
 C           -2.70541262        1.31071442       -1.41560256
 C            0.99454102        2.45729458       -2.75861361
 C            1.79978720        1.40498756       -3.34385918
 C           -0.38644617        2.29096248       -2.66074850
 C            1.74520724       -0.87947285       -4.16962881
 C            0.65602477       -1.83049050       -4.31020616
 C            1.17321242        0.45210838       -4.12979321
 C           -1.60584161       -1.63904388       -3.38254674
 C           -2.47847689       -0.73986421       -2.65298557
 C           -2.09802242        0.58620639       -2.44747880
 C           -0.96639600        1.09838663       -3.10009666
 C           -0.59026177       -1.10161655       -4.15862034
 C           -0.27120355        0.30995014       -4.02117046
