   70
C70 / DATE: 7/ 1/2024 / Origin: Program Fullerene / C70 from database
 C            1.45745768       -0.06924446        5.25376024
 C            0.59231931       -1.23130377        5.29367000
 C            1.19437687       -2.24647277        4.45320275
 C            2.53200122       -0.34394942        4.31136059
 C            2.29896968       -1.64147306        3.72589000
 C            2.61966010        0.78339079        3.42235155
 C            0.68522987        1.03140005        4.70837828
 C            1.52467605        1.69088755        3.73623073
 C           -0.67243206       -0.86880448        4.67446055
 C           -0.57862044        0.51002670        4.23874368
 C            0.12716400       -2.83383057        3.67504364
 C           -0.97590039       -1.88149070        3.68052590
 C            0.47500844       -3.38574684        2.45844942
 C            2.33389554       -1.79019277        2.33551278
 C            1.69481400       -2.90881861        1.81324061
 C            2.89563592        0.56757169        2.07652378
 C            2.56264157       -0.67494116        1.50276601
 C            2.81498226        1.70285770        1.28780317
 C            0.92098704        2.32031591        2.65583322
 C            1.78590012        2.66985826        1.63471242
 C           -0.96010037        0.82327628        2.93929740
 C           -0.37623143        1.92459787        2.29797100
 C           -1.51749809       -1.48541135        2.45573440
 C           -1.64960235       -0.12338816        2.17382262
 C           -0.52636429       -3.40338075        1.41966507
 C           -1.48241547       -2.38845399        1.39352102
 C            1.48862057       -3.02031232        0.38415802
 C            0.20820056       -3.68528427        0.21069642
 C            2.29241427       -0.76049627        0.11460237
 C            1.80058299       -1.94653155       -0.44457801
 C            2.80832034        1.57736616       -0.14726925
 C            2.47464362        0.35458111       -0.71495320
 C            1.24305404        3.18228746        0.40122279
 C            2.16322692        2.77943922       -0.64052800
 C           -0.89804698        2.30940928        1.05769871
 C           -0.11926559        3.05973053        0.16537306
 C           -2.14201164        0.26908512        0.93350176
 C           -1.99312122        1.60227160        0.56600222
 C           -2.01965073       -2.01755419        0.15831096
 C           -2.39912309       -0.68981677       -0.05298213
 C           -0.45063866       -3.50294779       -0.98272870
 C           -1.72942120       -2.81556630       -0.94375117
 C            1.26166000       -1.93719052       -1.73661151
 C            0.28043769       -2.87583709       -2.05674439
 C            1.99101527        0.34381741       -2.02900848
 C            1.41351955       -0.81444647       -2.55280295
 C            1.69964488        2.77843689       -1.93823478
 C            1.84525143        1.55871032       -2.70564890
 C           -0.57854113        3.25656901       -1.13905327
 C            0.34847230        3.25251238       -2.18708007
 C           -2.62144676        2.05117672       -0.58303043
 C           -1.92157741        3.01404845       -1.40956094
 C           -2.83499455       -0.27055413       -1.31894645
 C           -3.20503598        1.06689851       -1.47246064
 C           -1.94940420       -2.29386358       -2.27803702
 C           -0.72555517       -2.53424924       -3.03472864
 C           -2.61019367       -1.08185633       -2.44479841
 C            0.76127127       -0.77375484       -3.79415807
 C           -0.38517029       -1.63867524       -4.02866895
 C            0.91837598        1.66515006       -3.81654479
 C           -0.02589421        2.73330335       -3.49326324
 C            0.47821850        0.50426011       -4.42847212
 C           -2.36307815        2.81618024       -2.78037185
 C           -3.26079088        1.67117728       -2.78924226
 C           -1.37147150        2.60939609       -3.81829260
 C           -2.58729727       -0.52814038       -3.72698442
 C           -1.44662526       -0.81753895       -4.57716192
 C           -0.86588779        0.44941712       -4.97672672
 C           -2.93313042        0.86128215       -3.93758753
 C           -1.81611118        1.49082976       -4.62902535
