   70
C70 / DATE: 7/ 1/2024 / Origin: Program Fullerene / C70 from database
 C            1.41980472       -0.14980886        4.15537776
 C            2.50200075       -0.36004265        3.21453609
 C            2.25751718       -1.61876432        2.52354968
 C            0.56129029       -1.31870003        4.11109749
 C            1.03493202       -2.19033950        3.04684266
 C           -0.81330843       -0.85667637        4.06027371
 C            0.58451755        1.02373442        4.00135269
 C           -0.77386450        0.56621798        3.75907732
 C            1.07349709        2.08619853        3.25964195
 C            2.98904552        0.71588450        2.47894559
 C            2.36193838        1.96393566        2.58750487
 C            3.74444476        0.42389042        1.34803368
 C            2.52715177       -1.69517038        1.16401646
 C            3.49074429       -0.82770535        0.65026594
 C            1.57853759       -2.25594749        0.30079328
 C            0.09906797       -2.73499823        2.17548080
 C            0.38665894       -2.80895734        0.80323711
 C           -1.72982323       -1.64664552        3.38994327
 C           -1.22659620       -2.76098470        2.60429846
 C           -2.72363020       -0.99780297        2.55962863
 C           -1.48124397        1.06372544        2.66146932
 C           -2.44501803        0.26109486        2.03588336
 C            0.17713971        2.79188491        2.36034517
 C           -1.08630076        2.27386939        2.08249968
 C            2.34268890        2.88402090        1.45557906
 C            0.97380535        3.33189219        1.26913731
 C            3.97769000        1.45248047        0.35246910
 C            3.12611693        2.62471797        0.34531414
 C            3.52882797       -0.55742981       -0.77539151
 C            3.89983844        0.82965293       -0.95742612
 C            1.76227588       -2.13194013       -1.07706410
 C            2.53069040       -1.08450809       -1.57711172
 C            0.94681968       -2.83978469       -1.94237673
 C           -0.57225845       -3.33179033       -0.08228004
 C           -0.31152222       -3.35355224       -1.44771454
 C           -2.27114269       -3.11110033        1.67062126
 C           -3.24013612       -2.02349987        1.68001393
 C           -1.90982072       -3.36165557        0.29504473
 C           -3.51812140       -1.67638377        0.30394782
 C           -2.87994119       -2.67454745       -0.53891901
 C           -2.95913912        0.62404109        0.78504126
 C           -3.46850936       -0.34687342       -0.09116570
 C           -1.75027115        2.74559741        0.95653230
 C           -2.77356587        1.92665484        0.33673708
 C            0.41619167        3.38749282       -0.00691701
 C           -0.97461890        3.36986977       -0.10528702
 C            2.54122057        2.74279184       -0.97914433
 C            3.05754609        1.65469947       -1.79731378
 C            1.20772172        3.12456662       -1.13449244
 C            2.07651006       -0.35696885       -2.68292308
 C            2.19426939        1.03784606       -2.69593106
 C            0.71773051       -2.30605239       -3.27282923
 C            1.20291613       -0.97147097       -3.57577792
 C           -1.35712751       -2.91157303       -2.36117727
 C           -2.50940559       -2.32706551       -1.83604659
 C           -0.71358066       -2.33275912       -3.52608556
 C           -3.48984743       -0.09985650       -1.45971385
 C           -2.98043242       -1.12081030       -2.36393557
 C           -2.76211565        2.20749350       -1.08875972
 C           -1.62072596        3.06543143       -1.36798192
 C           -3.10551786        1.20022199       -1.97771104
 C            0.60580738        2.86742354       -2.36661824
 C            1.14516166        1.80211483       -3.19635539
 C           -0.84040318        2.83837196       -2.49013153
 C            0.09003318       -0.20935869       -4.11658808
 C           -1.11420632       -1.01285338       -3.97027161
 C           -2.26403396       -0.44419812       -3.43811532
 C           -2.31320906        0.98709407       -3.17900251
 C            0.04001332        1.15930548       -3.88694444
 C           -1.19272565        1.77435896       -3.41902897
