   70
C70 / DATE: 7/ 1/2024 / Origin: Program Fullerene / C70 from database
 C            1.43242728       -0.27490580        5.06875835
 C            0.57619193       -1.43305710        4.92816801
 C            1.14853115       -2.28517821        3.89764019
 C            2.54726913       -0.44175153        4.15271131
 C            2.29488710       -1.60872128        3.33446174
 C            2.72234397        0.81876632        3.47115086
 C            0.68043989        0.88687030        4.62148079
 C            1.53693377        1.62648054        3.73243786
 C           -0.70652489       -0.96830104        4.43168274
 C           -0.59108307        0.43697671        4.10246903
 C            0.07710230       -2.64465093        3.00143699
 C           -1.09002975       -1.86392034        3.37001419
 C            0.34186886       -2.76064144        1.64100640
 C            2.37570178       -1.46349337        1.95054616
 C            1.50656763       -2.18727649        1.11332569
 C            3.19674042        0.80808379        2.16463629
 C            3.09792938       -0.38412972        1.43033811
 C            3.07836618        2.01339536        1.48493696
 C            0.97278181        2.28768852        2.64936155
 C            1.88812655        2.80355300        1.74745503
 C           -0.98574131        0.84838374        2.82657085
 C           -0.28144685        1.86703049        2.16494255
 C           -1.83368955       -1.35740780        2.31950341
 C           -1.84092000        0.02154691        2.09060685
 C           -0.76552956       -2.84104681        0.81009128
 C           -1.92274182       -2.16712506        1.20467988
 C           -0.55827289       -3.04646346       -0.54466312
 C            1.62796598       -2.06098587       -0.28172966
 C            0.56898399       -2.45048611       -1.12202143
 C            3.38551731       -0.37647077        0.06973593
 C            2.65395468       -1.27510372       -0.80608085
 C            3.34894217        2.07322725        0.06300089
 C            3.55452519        0.88952042       -0.62832652
 C            1.42340522        3.32778287        0.49177286
 C            2.46789173        3.08636883       -0.49164913
 C           -0.69580023        2.25607386        0.87843009
 C            0.09720609        3.13919775        0.13175420
 C           -2.33614068        0.46820256        0.86375681
 C           -1.79735541        1.62174387        0.27810664
 C           -2.82634195       -1.80023535        0.22572430
 C           -3.06268296       -0.42952576        0.07302566
 C           -1.69134387       -3.27684132       -1.31679490
 C           -2.91916615       -2.65006238       -0.86901009
 C           -1.61146719       -3.09712795       -2.74593493
 C            0.49391949       -1.91417861       -2.42057558
 C           -0.57686034       -2.22716257       -3.25021076
 C            2.44384640       -0.59118855       -2.06974721
 C            3.01664932        0.73883498       -1.97043379
 C            1.23837234       -0.78200984       -2.72879385
 C            2.10917621        3.02532947       -1.82913013
 C            2.36744969        1.80383596       -2.58175119
 C           -0.25891226        3.46083897       -1.17053740
 C            0.78058953        3.48479205       -2.18887996
 C           -2.24689215        2.03567612       -0.98764765
 C           -1.43260666        2.85955595       -1.75934811
 C           -3.69480108        0.05254014       -1.06594868
 C           -3.17608198        1.25613595       -1.67841589
 C           -3.67880104       -2.24745907       -2.03025070
 C           -2.89570254       -2.59336916       -3.20497527
 C           -4.06342223       -0.85884100       -2.13970202
 C           -1.21836170       -1.13975621       -3.97110900
 C           -2.88469816        0.93081876       -3.06536585
 C           -2.65234823       -1.36872633       -3.94370406
 C           -3.49487677       -0.34184987       -3.37430488
 C            0.62181591        0.27511412       -3.40887832
 C            1.20350940        1.53861838       -3.41052777
 C            0.32530089        2.68051196       -3.30491293
 C           -1.08320071        2.42297165       -3.10556080
 C           -0.72075962        0.14965278       -3.78414193
 C           -1.60862711        1.21333046       -3.53465613
