   70
C70 / DATE: 7/ 1/2024 / Origin: Program Fullerene / C70 from database
 C            1.42554504        0.13674339        4.84344995
 C            0.64464758       -1.07444332        4.68017027
 C            1.49863045       -2.06517322        4.06738482
 C            2.65787308       -0.02831180        4.08735926
 C            2.74091433       -1.41030386        3.68320596
 C            2.68682174        0.99295504        3.05776970
 C            0.67861083        1.22434421        4.23732851
 C            1.54183224        1.85889970        3.27250852
 C           -0.58873215       -0.72078616        4.00347496
 C           -0.58879183        0.70965346        3.76148152
 C           -1.08246112       -1.53647346        2.99671865
 C            0.99942977       -2.76993307        2.90341381
 C           -0.31572196       -2.60143786        2.49936579
 C            2.97008164       -1.70156886        2.28343979
 C            2.02347243       -2.72994460        1.88215713
 C            3.02533110        0.66545800        1.73765242
 C            3.25621299       -0.67643078        1.38369873
 C            2.70730231        1.60223641        0.73976153
 C            0.96615998        2.41191104        2.14689386
 C            1.80067277        2.62032449        1.06680192
 C           -1.07635229        1.17429351        2.53676804
 C           -0.39424116        2.20712857        1.88493121
 C           -2.05581165       -0.99305937        2.16479762
 C           -1.92875951        0.35010353        1.79257145
 C           -2.72909280       -1.87216215        1.33224403
 C           -0.66016321       -3.10889068        1.25385760
 C           -2.00712784       -3.06160569        0.92765893
 C            1.63640827       -2.79029727        0.54291655
 C            0.29366218       -3.04412920        0.22428090
 C            3.27045822       -1.02983037        0.04107392
 C            2.44575739       -2.14898582       -0.39208575
 C            2.98685566        1.31370836       -0.60400610
 C            3.19861137       -0.00459288       -0.97675001
 C            2.60169270        2.20681182       -1.60085517
 C            1.33481442        3.48183272        0.09360525
 C            1.91783506        3.42241385       -1.22292517
 C           -0.90798675        2.70981063        0.68633344
 C           -0.10509822        3.58402231       -0.05281909
 C           -2.33662790        0.76623401        0.51821776
 C           -1.94101391        2.02038382        0.04550117
 C           -3.40798146       -1.36278374        0.16149305
 C           -3.09615486       -0.08601022       -0.29677738
 C           -2.41602486       -3.39404784       -0.41661094
 C           -3.46919069       -2.46369039       -0.78192702
 C           -0.13042045       -2.92305461       -1.10721173
 C           -1.41200385       -3.33940785       -1.45440941
 C            1.91792559       -1.83157870       -1.70634946
 C            2.45489459       -0.54438240       -2.10516115
 C            0.59647860       -2.12587410       -1.99547014
 C            1.94425153        1.68363691       -2.79105561
 C            1.67117246        0.31798969       -2.86504006
 C            0.86143961        3.67307058       -2.18680368
 C           -0.38731314        3.83251316       -1.45484542
 C            0.94975060        2.65509097       -3.22007064
 C           -2.39575490        2.46053993       -1.19495040
 C           -1.55149153        3.32404403       -2.00692596
 C           -3.30581057        0.22889323       -1.64562239
 C           -3.05413192        1.52219104       -2.08585580
 C           -3.31028057       -2.17392647       -2.18738955
 C           -2.05019203       -2.76554504       -2.62287356
 C           -3.28468118       -0.78806057       -2.60354511
 C           -0.06165022       -1.37759646       -2.97485151
 C            0.42918681       -0.11781134       -3.33957924
 C           -1.33991003       -1.75029843       -3.37917459
 C           -2.30814389       -0.71210347       -3.67307690
 C           -0.22160819        2.20780504       -3.81112312
 C           -1.48718061        2.74843342       -3.33884321
 C           -2.47422181        1.69004920       -3.40958661
 C           -0.40911131        0.78086775       -4.00312518
 C           -1.84349301        0.54013820       -4.03259097
