   70
C70 / DATE: 7/ 1/2024 / Origin: Program Fullerene / C70 from database
 C            1.63523819        0.03352021        4.51529858
 C            0.85923339       -1.18944881        4.46754504
 C            1.32411598       -1.98339316        3.34055239
 C            2.65324379       -0.05965808        3.49043870
 C            2.49217910       -1.32414267        2.79476904
 C            2.58508979        1.14904330        2.69123283
 C            0.74790161        1.12352497        4.14635775
 C            1.29944807        1.76409404        2.97056505
 C           -0.53677628       -0.80809873        4.49012729
 C           -0.59286517        0.58597346        4.07224172
 C           -1.43741821       -1.68577176        3.91157054
 C            0.37018450       -2.52038888        2.48014688
 C           -0.91532237       -2.68752424        2.99070486
 C            0.56394503       -2.42678245        1.09083958
 C            2.68340651       -1.30814721        1.42337764
 C            1.79517673       -1.99431449        0.58849061
 C            2.96935061        1.04906570        1.36171805
 C            3.34830658       -0.20680410        0.89888613
 C            2.38352770        1.91531957        0.44347851
 C            0.46601041        2.05265275        1.89434252
 C            1.05925662        2.31785910        0.66090976
 C           -1.40238145        0.92145724        2.99033381
 C           -0.88869332        1.69793914        1.93525522
 C           -2.61282991       -1.13380740        3.27011105
 C           -2.56652791        0.17650570        2.79315069
 C           -1.99250098       -3.05331462        2.09933403
 C           -3.11490218       -2.17830931        2.40001670
 C           -0.50717619       -2.60077191        0.20389476
 C           -1.75849591       -2.98533376        0.67583163
 C           -0.40930614       -2.10927447       -1.09841227
 C            1.97638134       -1.87627033       -0.79494500
 C            0.85055754       -1.81230010       -1.63116579
 C            3.78751818       -0.30094507       -0.40627096
 C            3.18482025       -1.33225216       -1.22527971
 C            2.90511684        1.93180706       -0.84989549
 C            3.77846430        0.90254815       -1.21294643
 C            2.25295523        2.68261421       -1.82534660
 C            0.25181752        2.66450388       -0.42028936
 C            0.85415078        3.01448381       -1.62478720
 C           -1.69447533        1.96230742        0.82374161
 C           -1.10389182        2.32404784       -0.39713831
 C           -3.44884963        0.55960959        1.78953505
 C           -3.03866352        1.60717777        0.87435996
 C           -3.72028723       -1.78662731        1.14619826
 C           -2.93952641       -2.39568070        0.07496712
 C           -4.12639533       -0.46771358        1.00597925
 C           -1.57798942       -1.79725673       -1.80782560
 C           -2.79703144       -1.71977582       -1.13160429
 C           -1.48373564       -1.18583402       -3.05037001
 C            0.96228106       -1.37144846       -2.96195496
 C           -0.18062562       -0.97696414       -3.64730659
 C            3.34278235       -0.91890051       -2.60198781
 C            3.85514778        0.44524751       -2.58783959
 C            2.18667238       -0.93690499       -3.46277800
 C            2.44422971        2.38598935       -3.23715361
 C            3.16814798        1.19103210       -3.61856143
 C            2.22528079        0.28462915       -4.25266018
 C            0.15235221        2.74425459       -2.86520639
 C           -0.20764092        0.33297167       -4.28321756
 C            1.13192859        2.32095098       -3.85499882
 C            0.98697239        1.01062625       -4.46809031
 C           -1.79252878        2.14421105       -1.60914045
 C           -2.26984430        0.01261850       -3.29627628
 C           -1.06857379        2.08888474       -2.79867518
 C           -1.32194044        1.03976381       -3.68364016
 C           -3.76483399        1.40405242       -0.35781558
 C           -4.29394161        0.04982958       -0.33410210
 C           -3.66500339       -0.66637865       -1.42560068
 C           -3.05566773        1.56365057       -1.60772400
 C           -3.24654948        0.34577143       -2.37529592
