   70
C70 / DATE: 7/ 1/2024 / Origin: Program Fullerene / C70 from database
 C            1.32640118       -0.05742847        4.40822059
 C            2.52779233       -0.35621616        3.66530541
 C            2.48873533       -1.76487155        3.30461340
 C            0.49018385       -1.24675250        4.41771363
 C            1.22933373       -2.31817566        3.77297165
 C           -0.81893192       -0.87871318        3.89173295
 C            0.50609252        1.04174738        3.95572211
 C           -0.85768351        0.56109960        3.81017924
 C            0.98801290        1.91852483        2.98826305
 C            2.80431939        0.40611379        2.45891916
 C            1.98501914        1.47901822        2.10306050
 C            2.82122609       -1.86907066        1.89322245
 C            3.19391150       -0.54157665        1.43458342
 C            2.04359627       -2.67827460        1.06351627
 C            0.53618945       -3.18137261        2.93851963
 C            1.11205775       -3.53259979        1.65068299
 C           -1.36665429       -1.63483265        2.86556383
 C           -0.87214504       -2.92580824        2.68980256
 C           -2.06012316       -0.99628671        1.82204087
 C           -1.65006412        1.17982989        2.85504901
 C           -2.23435652        0.40539718        1.83674912
 C            0.07803688        2.86686570        2.54576605
 C           -1.33025579        2.50714466        2.59286107
 C            0.30451689        3.54305026        1.28764175
 C            1.95110073        1.87817402        0.75859939
 C            1.22281517        3.01281175        0.39072130
 C            2.95875839       -0.22198631        0.11021770
 C            2.54515115        1.06758437       -0.22199805
 C            1.94823076       -2.35285294       -0.29782710
 C            2.67837011       -1.25797464       -0.76862908
 C            0.93023568       -2.89329311       -1.10172025
 C            0.02597554       -4.05800536        0.85288895
 C           -1.21880561       -3.66862415        1.50231239
 C           -0.06870381       -3.66751261       -0.53565338
 C           -2.56314539       -1.76126813        0.75544464
 C           -2.04322979       -3.02694298        0.50851507
 C           -1.44120743       -3.28709868       -0.78819095
 C           -3.16941767       -1.12944287       -0.31893767
 C           -2.89796779        1.04612313        0.77317840
 C           -3.35600902        0.30207384       -0.30276049
 C           -2.00122705        3.20045036        1.52359079
 C           -0.99759538        3.95789236        0.79526970
 C           -2.74047374        2.41506578        0.56752581
 C           -1.27740902        3.81931202       -0.62042109
 C           -2.38822977        2.89115240       -0.76251477
 C            1.10289372        3.35279673       -0.95366964
 C           -0.20677147        3.70904420       -1.48893848
 C            2.45388506        1.40373936       -1.57617398
 C            1.78576246        2.56178272       -1.95814296
 C            2.68245707       -0.97453310       -2.12523227
 C            2.70749932        0.41944001       -2.53160783
 C            0.66791999       -2.31229072       -2.34020152
 C            1.71387000       -1.64361323       -2.96493375
 C           -1.69836935       -2.39399526       -1.82163243
 C           -2.76778524       -1.51302026       -1.66459217
 C           -0.66684272       -2.05908290       -2.70546705
 C           -3.12580444        0.80195877       -1.65202124
 C           -2.40857374        1.98553179       -1.82264543
 C           -2.87313537       -0.33883628       -2.51489011
 C           -0.38414630        2.96609228       -2.71898247
 C            0.94126119        2.55395437       -3.14568207
 C           -1.45542080        2.08117673       -2.84552827
 C            2.06763773        0.50055488       -3.83503421
 C            1.46592726       -0.79478013       -4.11208583
 C            1.06232340        1.52120644       -4.06335220
 C           -0.96360646       -1.19803720       -3.76293370
 C           -2.00196795       -0.20032477       -3.58201209
 C           -1.39817871        1.09620301       -3.83064350
 C            0.10043890       -0.57597286       -4.52574626
 C           -0.14370046        0.85855506       -4.53016257
