   70
C70 / DATE: 7/ 1/2024 / Origin: Program Fullerene / C70 from database
 C            1.48213811        0.09291747        4.70567871
 C            0.70233046       -1.11645109        4.52210347
 C            1.40611755       -1.96650735        3.57631056
 C            2.64704751       -0.00141979        3.84376264
 C            2.69756979       -1.34792180        3.31272943
 C            2.60780152        1.10434294        2.90265674
 C            0.67559696        1.20546117        4.23860165
 C            1.41267427        1.87913913        3.19252337
 C           -0.65675601       -0.72070890        4.21071783
 C           -0.64726590        0.70618718        3.92029963
 C           -1.39782497       -1.54881755        3.38825566
 C            0.68634121       -2.54685151        2.52705109
 C           -0.70572895       -2.55998134        2.59559495
 C            1.32127792       -2.79459532        1.30421564
 C            3.26750394       -1.52608569        2.06593393
 C            2.67797798       -2.50351776        1.17935193
 C            2.95152312        0.86510535        1.56728603
 C            3.54390095       -0.35297532        1.24458319
 C            2.34229476        1.62796463        0.56090467
 C            0.71224405        2.39363481        2.11864505
 C            1.41863164        2.60041400        0.94699222
 C           -1.27221933        1.17264023        2.76149163
 C           -0.67082247        2.19961103        2.02954318
 C           -2.38644864       -0.94818191        2.51888576
 C           -2.25410594        0.39180390        2.15203113
 C           -1.47907562       -2.75906749        1.38241070
 C           -2.66981608       -1.93404960        1.49667085
 C            0.56434770       -3.03314237        0.14800315
 C           -0.81738228       -2.83762798        0.16177555
 C            1.21097050       -3.21441704       -1.07302920
 C            3.22165625       -2.21920139       -0.13022680
 C            3.55679123       -0.80010958       -0.13494657
 C            2.58083051       -2.74809918       -1.23438579
 C            2.36537700        1.19431319       -0.77600859
 C            3.03048976        0.01703170       -1.13108683
 C            1.63057192        1.89150148       -1.74197684
 C            0.82235417        3.39826744       -0.01025227
 C            1.08365299        3.12284643       -1.40532149
 C           -1.33095335        2.72749635        0.91776352
 C           -0.60501154        3.61005142        0.11357159
 C           -2.82638004        0.82153576        0.95363027
 C           -2.42976052        2.03636762        0.38575220
 C           -3.29557101       -1.50931621        0.34195292
 C           -3.55775115       -0.09107491        0.18968716
 C           -1.49283472       -2.48487835       -1.01379431
 C           -2.78790658       -1.97242754       -0.93503808
 C            0.49484100       -2.92145612       -2.30217256
 C           -0.81335437       -2.45200177       -2.23462449
 C            2.63984450       -1.99217185       -2.46838544
 C            2.79258129       -0.55036083       -2.38126085
 C            1.42390669       -2.26485761       -3.20601550
 C            1.18478004        1.22985220       -2.89022692
 C            1.80930094        0.04654799       -3.26844905
 C            1.01047455       -1.02915369       -3.84007970
 C           -0.05550117        1.55361292       -3.45365727
 C           -0.05186895        3.62673634       -2.15528945
 C           -1.08949050        3.98447403       -1.19692181
 C           -0.65365143        2.77372797       -3.15724067
 C           -2.99543889        2.42958374       -0.83134981
 C           -2.33660156        3.42253216       -1.65642408
 C           -2.09318230        2.81776629       -2.95549203
 C           -3.75425399        0.14575245       -1.22904970
 C           -3.24564347       -1.02361273       -1.93523797
 C           -3.51869112        1.41635604       -1.73062740
 C           -2.84479092        1.57494330       -3.01150863
 C           -1.28529310       -1.64004784       -3.26972209
 C           -0.34602944       -0.81851276       -4.01997332
 C           -0.84979094        0.54005396       -3.98436163
 C           -2.50297491       -0.86308878       -3.09479762
 C           -2.25557060        0.47211834       -3.61843328
