   70
C70 / DATE: 7/ 1/2024 / Origin: Program Fullerene / C70 from database
 C            1.33482763       -0.03565663        4.40089153
 C            2.55585390       -0.22492650        3.65577935
 C            2.50296890       -1.54131160        3.04177214
 C            0.49743644       -1.20899242        4.19446540
 C            1.17462837       -2.07880597        3.24866751
 C           -0.84112421       -0.74315306        3.87266206
 C            0.52280287        1.12924338        4.11615345
 C           -0.86238924        0.68751381        4.11088140
 C            0.93927658        2.07288205        3.17328923
 C            2.88972725        0.72801163        2.61686585
 C            2.11108506        1.86823192        2.42307332
 C            2.98334985       -1.41341494        1.68151479
 C            3.33259970       -0.02426761        1.45243272
 C            2.32467809       -2.08687716        0.66870361
 C            0.46677459       -2.54549115        2.14562584
 C            1.14361983       -2.78443203        0.94481820
 C           -1.47087553       -1.25714287        2.74325399
 C           -0.91523370       -2.37492778        2.11813745
 C           -2.39767803       -0.47517619        2.04412284
 C           -1.80289490        1.46179775        3.45122975
 C           -2.61280919        0.84952060        2.40867395
 C            0.01320950        3.03589838        2.77120000
 C           -1.40118361        2.77473316        2.98031161
 C            0.14681935        3.68520236        1.48024335
 C            2.31735726        2.58066243        1.24410119
 C            1.31215376        3.50812116        0.75682914
 C            3.13765035        0.52339768        0.18280524
 C            2.88610327        1.88803671        0.09520109
 C            2.56416572       -1.67681284       -0.63088858
 C            2.76921386       -0.31289383       -0.88097514
 C            2.15816461       -2.52465212       -1.64584972
 C            0.45458906       -3.39427045       -0.11084656
 C            1.02341275       -3.39241281       -1.38938204
 C           -1.63567339       -2.99383568        1.10827639
 C           -0.90850591       -3.64885451        0.03563311
 C           -2.82090478       -0.89657023        0.78480619
 C           -2.72110516       -2.25143575        0.49937774
 C           -2.90370912        0.04122247       -0.25744925
 C           -2.80618472        1.82618519        1.35451779
 C           -2.09230443        3.03180229        1.72905872
 C           -1.13058078        3.58100361        0.79208359
 C           -2.73867217        1.39911479        0.03354585
 C           -1.15523631        3.13664499       -0.52658257
 C           -2.15252011        2.23357151       -0.91600588
 C            1.23354568        3.35702796       -0.68577593
 C            2.27272812        2.42922467       -1.10055396
 C           -0.00706105        3.28693135       -1.31175364
 C            2.38002311        0.24733121       -2.10914998
 C            2.02230456        1.59624111       -2.18320124
 C            2.04971131       -2.01572550       -2.99298952
 C            2.09444957       -0.58267582       -3.19155349
 C            0.17289717       -3.36623451       -2.57369892
 C            0.80306690       -2.50868764       -3.55741260
 C           -1.77208414       -3.63623545       -1.13183509
 C           -2.85852113       -2.70736161       -0.86438160
 C           -1.20195111       -3.30010614       -2.42077248
 C           -2.95185715       -0.37127076       -1.59912591
 C           -2.87255829       -1.72225096       -1.92006572
 C           -1.92556064       -2.14594995       -2.94002652
 C           -2.28792837        1.90445589       -2.25530253
 C           -2.65112571        0.54277580       -2.60553533
 C           -0.02925028        2.86027975       -2.63480550
 C            1.05033354        2.00177889       -3.09842469
 C           -1.26679702        2.34519854       -3.18143905
 C            0.99500382       -0.24025194       -4.07597951
 C            0.06819755       -1.36468198       -4.06660845
 C           -1.26358631       -1.17010843       -3.68720616
 C           -1.79660799        0.11729165       -3.70556452
 C            0.49385518        1.05050411       -4.04689918
 C           -0.94411061        1.23601601       -4.06296412
