   70
C70 / DATE: 7/ 1/2024 / Origin: Program Fullerene / C70 from database
 C            1.31686116        0.03963199        4.70114485
 C            2.53037814       -0.08561755        3.92177157
 C            2.50129214       -1.37938392        3.26099096
 C            0.48008188       -1.11608195        4.41322743
 C            1.18575598       -1.95659038        3.46638198
 C           -0.84034191       -0.63689876        4.05628336
 C            0.50654885        1.22730225        4.53309709
 C           -0.85469282        0.80157573        4.25067817
 C            0.87396577        2.20412515        3.52191948
 C            2.83480852        0.91312358        2.91072856
 C            2.04348630        2.05553288        2.77009732
 C            2.96371015       -1.19570526        1.89485411
 C            3.27832217        0.20877118        1.71602431
 C            2.29758238       -1.85671418        0.87376964
 C            0.50392751       -2.43654699        2.35424718
 C            1.23361319       -2.69595403        1.19974736
 C           -1.45602337       -1.14864908        2.92048313
 C           -0.87329884       -2.22303696        2.24168757
 C           -2.34704892       -0.33214448        2.23269745
 C           -1.37177192        1.63679355        3.17709889
 C           -0.35200394        2.61507080        2.85264932
 C           -2.06978245        1.03119984        2.13902180
 C           -0.27156706        3.09540520        1.55275222
 C            2.15428806        2.78076342        1.58824386
 C            0.98150348        3.46916696        1.07967405
 C            3.06724972        0.80029105        0.47381589
 C            2.80754489        2.16412811        0.44395001
 C            2.38030133       -1.34658800       -0.41913603
 C            2.67047957        0.01096371       -0.61094599
 C            1.87727061       -2.10933296       -1.47200023
 C            0.61404221       -3.40672659        0.18626691
 C            1.03091197       -3.18012165       -1.18592165
 C           -1.55376548       -2.76871950        1.14671078
 C           -0.83502716       -3.50338333        0.19992852
 C           -3.14828901       -0.91611265        1.26688259
 C           -2.80672301       -2.25226037        0.81643896
 C           -3.48279266       -0.14004678        0.08936125
 C           -2.08825993        1.64411939        0.88321419
 C           -1.26976440        2.75337471        0.63544821
 C           -2.75701238        1.01559869       -0.17147452
 C           -1.21296026        3.28791783       -0.65144743
 C            1.17747599        3.66090249       -0.34341424
 C            2.24675734        2.75920866       -0.75495285
 C            0.05999729        3.78417065       -1.15352645
 C            2.39366957        0.61612338       -1.84215882
 C            2.07816721        1.97796042       -1.89407895
 C            1.92783978       -1.60543776       -2.76624731
 C            2.16445754       -0.18595050       -2.95831082
 C            0.92297371       -2.02464648       -3.72836323
 C           -0.11455147       -3.45022065       -2.04139054
 C           -1.28438966       -3.57615713       -1.18558950
 C           -0.21717330       -2.79326798       -3.26019018
 C           -3.32340883       -2.39470674       -0.53397368
 C           -3.73365481       -1.07439506       -0.98938174
 C           -2.47855502       -2.97451914       -1.55872147
 C           -1.42124865       -2.03318899       -3.56905282
 C           -3.10904653       -0.83329916       -2.27486097
 C           -2.50829644       -2.08252295       -2.70774503
 C           -2.44366217        1.34952352       -1.48933482
 C           -1.87886462        2.59169481       -1.73934031
 C           -2.41866288        0.35816811       -2.48199410
 C            0.17647315        3.37739827       -2.53991212
 C            1.23569551        2.45221204       -2.89809857
 C           -1.08235437        2.77045863       -2.93420992
 C            1.26543863        0.28002488       -4.00448184
 C            0.41649150       -0.83401175       -4.38415469
 C           -1.00311090       -0.74518668       -4.09639341
 C           -1.49517785        0.43119804       -3.53256902
 C            0.67699789        1.52630190       -3.86234374
 C           -0.77307808        1.60392451       -3.73557196
