   70
C70 / DATE: 7/ 1/2024 / Origin: Program Fullerene / C70 from database
 C            1.53275544       -0.10089328        5.04537003
 C            0.74348034       -1.31795098        4.96418200
 C            1.60211174       -2.34866279        4.42374820
 C            2.70863276       -0.29184792        4.21504245
 C            2.78147417       -1.69421657        3.87144729
 C            2.64548861        0.67617318        3.13984644
 C            0.75071967        0.97380906        4.45764211
 C            1.51423254        1.55318924        3.37550430
 C           -0.49595862       -0.99574404        4.27328577
 C           -0.55421631        0.45005357        4.13683295
 C           -0.94911152       -1.78673951        3.20838455
 C            1.06635583       -3.21658899        3.39756215
 C           -0.25099933       -2.93996092        2.84546876
 C            2.86855470       -2.06240778        2.46933860
 C            2.00219454       -3.20379892        2.28475164
 C            2.88364187        0.27957048        1.83020499
 C            2.86729285       -1.07668963        1.48286110
 C            2.56888339        1.19174069        0.83684901
 C            0.82613348        2.02409186        2.25869113
 C            1.51485737        2.08444742        1.05419647
 C           -1.20153474        0.95129220        3.02239742
 C           -0.56472503        1.90029620        2.20938962
 C           -1.83933855       -1.21685406        2.28744542
 C           -2.15121178        0.13421432        2.43666585
 C           -2.03306317       -1.82576224        1.03790944
 C           -0.17911235       -3.29644974        1.44469243
 C            1.22139917       -3.26998828        1.06566619
 C           -1.07851133       -2.72693196        0.56132935
 C            2.49092209       -1.42762906        0.17842092
 C            1.57689631       -2.46946979       -0.01740257
 C            2.86695457        0.84530767       -0.46701514
 C            2.64856233       -0.48313301       -0.83746593
 C            2.72172749        1.84187757       -1.41754584
 C            0.88211857        2.65196795       -0.04995807
 C            1.62657370        2.77513118       -1.22067402
 C           -1.24433356        2.32798724        1.05983410
 C           -0.51714623        2.61759241       -0.11182679
 C           -3.01888779        0.73227980        1.54620550
 C           -2.59405931        1.99243262        0.97053259
 C           -2.91859402       -1.24343368        0.11910817
 C           -3.56306073       -0.05916658        0.46614714
 C           -2.84917104       -1.62342452       -1.22542882
 C           -0.69045821       -2.63115061       -0.76739002
 C            0.64912838       -2.35309012       -1.05338123
 C           -1.66864128       -2.32613053       -1.69295860
 C            2.10276346       -0.75350413       -2.09431238
 C            0.97710157       -1.58044860       -2.16989518
 C            2.75047971        1.47183877       -2.81458184
 C            2.41372192        0.10475297       -3.14466215
 C            0.94784751        2.92174341       -2.49090077
 C            1.80947029        2.33123626       -3.50497900
 C           -1.16787367        2.70658190       -1.35953558
 C           -0.42541637        2.71700641       -2.54403450
 C           -3.29771808        2.14776476       -0.27910312
 C           -3.96421568        0.88340819       -0.56471368
 C           -2.54504755        2.51604229       -1.45272479
 C           -3.26350830       -0.70734638       -2.28204164
 C           -3.71500881        0.56380444       -1.95577189
 C           -3.07096336        1.72505928       -2.54965722
 C           -1.28739188       -1.77213182       -2.97379434
 C            0.04010605       -1.42258502       -3.20085765
 C           -2.34961875       -0.87419559       -3.40149949
 C            1.55907760        0.14637464       -4.31254033
 C            1.21421567        1.54128404       -4.56224991
 C            0.32940380       -0.61517902       -4.29714464
 C           -1.02018635        2.28384899       -3.73401032
 C           -2.27939538        1.56490731       -3.67601114
 C           -2.02227377        0.22396909       -4.18689431
 C           -0.22005806        1.61156473       -4.74155455
 C           -0.71446858        0.24886393       -4.82243659
