   70
C70 / DATE: 7/ 1/2024 / Origin: Program Fullerene / C70 from database
 C            1.69070266       -0.04586539        4.46201770
 C            0.86461732       -1.23503161        4.36653847
 C            1.38802718       -2.06470729        3.29398096
 C            2.67387963       -0.10661841        3.39679736
 C            2.53952485       -1.38365186        2.72939083
 C            2.54106619        1.08952712        2.59370476
 C            0.83910937        1.10232873        4.20840892
 C            1.38347207        1.82398058        3.07310510
 C           -0.51939831       -0.81016441        4.29935049
 C           -0.53252795        0.63585447        4.12738524
 C           -1.40020643       -1.57633920        3.55285064
 C            0.49667811       -2.69393128        2.42550562
 C           -0.87450504       -2.62856106        2.69266188
 C            0.93098572       -3.02999416        1.13889225
 C            2.70745800       -1.42918964        1.35363044
 C            2.12772737       -2.48375123        0.66066007
 C            2.71593292        0.98552656        1.22197304
 C            3.02033015       -0.25733694        0.65528004
 C            2.14018258        1.95961297        0.41853497
 C            0.49695683        2.34521042        2.13513892
 C            0.93781352        2.54577666        0.82292320
 C           -1.36338498        1.19637730        3.16050939
 C           -0.87158813        2.25392142        2.38348269
 C           -2.46664329       -0.91357284        2.82337269
 C           -2.47856512        0.47334906        2.72134543
 C           -1.83414105       -2.82576251        1.61655629
 C           -2.74762691       -1.69669882        1.63118377
 C            0.02244155       -3.59578160        0.24560159
 C           -1.39016103       -3.31284014        0.40137454
 C            0.30048396       -3.57420837       -1.17644872
 C            2.51175442       -2.67850307       -0.66064064
 C            1.58924884       -3.29529173       -1.59901694
 C            3.23306966       -0.33548950       -0.72576956
 C            3.18066838       -1.58506250       -1.34474224
 C            2.52432556        2.01013203       -0.90972403
 C            3.12653652        0.82552256       -1.49710048
 C            1.63447682        2.60082500       -1.88804403
 C            0.05552716        3.07860113       -0.12614330
 C            0.37726846        3.04421935       -1.48776700
 C           -1.73887118        2.94254529        1.54873616
 C           -1.24360882        3.41022723        0.26400414
 C           -3.30522095        1.03164461        1.75331830
 C           -3.06212524        2.39598007        1.33777277
 C           -3.05325764       -1.02378282        0.44879379
 C           -3.59639342        0.24856610        0.55902822
 C           -1.83320328       -2.66122713       -0.81983677
 C           -0.82126942       -2.90668917       -1.82744640
 C           -2.44014225       -1.41053791       -0.74753698
 C           -0.57601941       -1.93894809       -2.79312612
 C            1.76991000       -2.64990365       -2.88507214
 C            2.84622956       -1.68156122       -2.75423457
 C            0.63906587       -1.96343038       -3.47956580
 C            2.69924045        0.75412012       -2.88837930
 C            1.78530297        1.85849200       -3.13320282
 C            2.45019384       -0.48258733       -3.46860725
 C            1.15191480       -0.74286262       -4.07541117
 C            0.67970418        1.66218970       -3.95107875
 C            0.27179247        0.30669917       -4.28690214
 C           -0.63672098        3.15660686       -2.43763695
 C           -0.53009223        2.41656536       -3.68265246
 C           -2.33177543        3.29861094       -0.69591730
 C           -3.36282785        2.48761461       -0.07759529
 C           -3.56765882        1.13943787       -0.58120981
 C           -2.01626327        3.02980984       -2.01604205
 C           -2.23439144       -0.47795524       -1.77683157
 C           -1.37685234       -0.79505946       -2.84812029
 C           -1.09659133        0.15405965       -3.82982407
 C           -1.64791413        1.48331226       -3.72049726
 C           -2.89577799        0.76094583       -1.73805151
 C           -2.49789429        1.78470573       -2.59363497
