   70
C70 / DATE: 7/ 1/2024 / Origin: Program Fullerene / C70 from database
 C            1.51713172        0.04831507        4.57321329
 C            0.68859980       -1.14350938        4.51972502
 C            1.21196060       -2.00718409        3.47799187
 C            2.50205262       -0.04678715        3.50917924
 C            2.38646762       -1.35673900        2.91965932
 C            2.34673286        1.09728267        2.63714646
 C            0.66662179        1.18585065        4.28114257
 C            1.23383938        1.87828165        3.14748255
 C           -0.69255829       -0.72066576        4.43306932
 C           -0.69783285        0.71558434        4.17358434
 C           -1.57913695       -1.52749187        3.73663860
 C            0.32658654       -2.64858849        2.60471102
 C           -1.05426618       -2.52823957        2.81172808
 C            0.79514915       -3.02685818        1.33762842
 C            2.59477056       -1.49078237        1.56070126
 C            2.08648362       -2.63190585        0.97295967
 C            2.44698306        0.91179325        1.25362088
 C            2.76053061       -0.35534806        0.75333531
 C            1.82253301        1.83716282        0.41271824
 C            0.38252644        2.43795810        2.21599126
 C            0.92878463        2.74852975        0.98319490
 C           -1.50408524        1.22566592        3.15517766
 C           -0.99654392        2.19658189        2.28139474
 C           -2.72033546       -0.89874780        3.10066100
 C           -2.64111574        0.51448942        2.78355607
 C           -1.94661491       -2.57784472        1.66399458
 C           -2.99939715       -1.61193851        1.86559124
 C           -0.13752214       -3.30731625        0.33185185
 C           -1.38413635       -2.70974488        0.40590042
 C            0.30736481       -3.71673859       -0.91404566
 C            2.56567941       -2.94907844       -0.28257459
 C            1.73546039       -3.76601480       -1.13619625
 C            2.85912225       -0.54360516       -0.62983370
 C            3.07315752       -1.84970431       -1.08429190
 C            1.81159000        1.62368979       -0.97230948
 C            2.34169794        0.43284789       -1.50437287
 C            1.19910106        2.56830973       -1.80865560
 C            0.19499688        3.59139726        0.17356351
 C            0.45912507        3.60741296       -1.24609477
 C           -1.78275135        2.61976025        1.20408486
 C           -1.24534818        3.59229811        0.35980584
 C           -3.17290435        0.68101452        1.44515665
 C           -3.23543178       -0.63156842        0.82842537
 C           -2.71999764        1.73162610        0.66810652
 C           -1.81189638       -1.90018517       -0.65823382
 C           -2.64671038       -0.80182219       -0.42383287
 C           -0.30085320       -3.10324787       -2.08330264
 C           -1.17718736       -2.03035934       -1.89929754
 C            1.99401364       -3.37357101       -2.50489766
 C            2.82154121       -2.17752535       -2.46696984
 C            0.72140378       -3.00668345       -3.09926675
 C            2.18663841        0.14417498       -2.87558109
 C            2.17873375       -1.18538204       -3.28453155
 C            0.90678410       -1.73075703       -3.73367978
 C            1.06237458        2.30135471       -3.16562464
 C            1.40551521        0.98911173       -3.65410244
 C           -0.16399555        2.67697205       -3.85462680
 C           -0.76956789        4.05098025       -1.88400086
 C           -1.84745393        3.79613926       -0.94631444
 C           -1.15348837        3.45711827       -3.14587343
 C           -2.78466934        1.57968882       -0.71342078
 C           -2.55909625        0.30910419       -1.26163778
 C           -2.64084002        2.71676626       -1.49264681
 C           -2.29155899        2.58094208       -2.88909855
 C           -1.16282169       -0.94396999       -2.79522912
 C           -0.15534478       -0.84545998       -3.77845459
 C            0.19478531        0.41736172       -4.22332949
 C           -0.81263645        1.44233591       -4.25310782
 C           -1.97076687        0.17334762       -2.52297569
 C           -1.95797338        1.26411506       -3.39428031
