   70
C70 / DATE: 7/ 1/2024 / Origin: Program Fullerene / C70 from database
 C            1.48602643       -0.06916636        4.65392074
 C            0.64774047       -1.24797014        4.60785353
 C            1.11250744       -2.09221621        3.52128358
 C            2.47872784       -0.19909125        3.60403494
 C            2.19744006       -1.39911376        2.84746171
 C            2.48925640        1.04599665        2.88306135
 C            0.64812760        1.07319433        4.32170785
 C            1.28222533        1.77021650        3.23013539
 C           -0.72831812       -0.79782792        4.57299946
 C           -0.70010981        0.59187339        4.13017108
 C           -1.66029966       -1.64652032        4.00064082
 C            0.16232950       -2.74203427        2.74804785
 C           -1.17142199       -2.74182468        3.17322171
 C            0.44660306       -2.99591359        1.40856529
 C            2.18969366       -1.31718362        1.45406584
 C            1.36806181       -2.18080377        0.72885942
 C            2.80576416        1.02613128        1.53992658
 C            2.70990441       -0.17671300        0.82516039
 C            2.49160762        2.17632629        0.84878877
 C            0.50862155        2.24471620        2.17354944
 C            1.20972885        2.69784694        1.05782608
 C           -1.40417850        0.95922462        2.98001662
 C           -0.78012130        1.72392085        1.97615286
 C           -2.76969100       -1.04720207        3.28661583
 C           -2.56999040        0.25784257        2.68166534
 C           -2.22730711       -3.07256503        2.22816661
 C           -3.17357751       -1.97123213        2.24113431
 C           -0.46449393       -3.76143023        0.69447615
 C           -1.87541828       -3.61530072        1.00280704
 C           -0.34962521       -3.84560289       -0.74412106
 C            1.35098237       -2.09146325       -0.66853332
 C            0.61791560       -3.00103084       -1.41357481
 C            2.70474592       -0.10389356       -0.57795407
 C            1.85971416       -0.95405020       -1.29941361
 C            3.06164338        2.29813702       -0.39993376
 C            3.16115963        1.07363353       -1.17276332
 C            2.56890085        3.33974875       -1.26808019
 C            0.48802322        3.15455248       -0.03940616
 C            1.20198570        3.76850878       -1.06525695
 C           -1.36173160        1.80133338        0.69877075
 C           -0.74480614        2.55250742       -0.30877265
 C           -3.02201699        0.17418609        1.30766710
 C           -3.36873181       -1.20741501        1.02076293
 C           -2.35773115        0.89756609        0.33570054
 C           -2.48885184       -3.07614206       -0.19753823
 C           -1.65892108       -3.52655760       -1.29492392
 C           -2.96523019       -1.76160682       -0.19274684
 C           -0.01346994       -2.54224355       -2.62881035
 C           -1.44636275       -2.62875971       -2.40203683
 C            1.43938150       -0.62032038       -2.60534706
 C            0.44850117       -1.38690141       -3.24279866
 C            2.77860247        1.39123080       -2.53498302
 C            2.67224211        2.84262784       -2.62188607
 C            1.84096664        0.59539986       -3.18517559
 C            0.60097551        3.90639431       -2.37473798
 C            1.56846148        3.42320855       -3.35588877
 C           -1.18001921        2.40468574       -1.63578084
 C           -0.65014385        3.22710508       -2.63043995
 C           -2.42437455        0.45970258       -0.97863585
 C           -2.63149728       -0.90265886       -1.24905559
 C           -2.17269760       -1.44739446       -2.45623631
 C           -1.98928768        1.31358405       -1.98335291
 C           -0.48817522       -0.72829530       -4.02887693
 C           -1.82669302       -0.58359030       -3.48493643
 C           -2.00543943        0.83556571       -3.28828916
 C            1.11140357        1.14377101       -4.24716271
 C            0.85231691        2.57249578       -4.27765019
 C           -0.56199289        2.73431641       -3.98991545
 C           -0.13519102        0.53017533       -4.63619015
 C           -1.19437034        1.47430907       -4.30401222
