   70
C70 / DATE: 7/ 1/2024 / Origin: Program Fullerene / C70 from database
 C            1.53264101        0.21654311        5.02529117
 C            0.75621674       -0.98526866        4.78808490
 C            1.62212822       -1.92269775        4.11494051
 C            2.70096261        0.15753845        4.15969808
 C            2.80393060       -1.19308419        3.66862096
 C            2.58622740        1.23640553        3.19818898
 C            0.73382450        1.34715913        4.59347370
 C            1.55652490        2.13222231        3.69991111
 C           -0.47890096       -0.59969112        4.13128616
 C           -0.53291335        0.85113363        4.08044630
 C           -0.92394867       -1.30885712        3.02328011
 C            1.10156979       -2.62816773        2.96144857
 C           -0.21117218       -2.42137421        2.54505963
 C            2.91774386       -1.40541796        2.23993088
 C            2.13098904       -2.58507227        1.94966899
 C            2.64617885        0.97451914        1.82135933
 C            2.84627910       -0.33103727        1.34701327
 C            2.19576814        1.96263116        0.94328127
 C            0.90243661        2.92423520        2.77975428
 C            1.48410157        3.04398188        1.46371563
 C           -1.07230159        1.47183281        2.94962567
 C           -0.51659343        2.68459567        2.54900449
 C           -1.84052684       -0.68509696        2.18584407
 C           -1.77168128        0.70088725        2.01053713
 C           -2.49756360       -1.46728892        1.25353603
 C           -0.56759344       -2.95337034        1.30156082
 C           -1.84399826       -2.68330260        0.81436019
 C            1.73544945       -2.77598400        0.64144793
 C            0.45764204       -3.27928135        0.40459580
 C            2.57903744       -0.63022766        0.00523026
 C            2.30365071       -1.95871667       -0.32692813
 C            2.11996504        1.70286584       -0.42772420
 C            2.22928360        0.38874668       -0.88841879
 C            1.57539470        2.67974799       -1.26040119
 C            0.45211046        3.65275741        0.65785812
 C           -0.80841523        3.20118666        1.22550612
 C            0.59702542        3.60577068       -0.71279060
 C           -2.19577705        1.27517740        0.79952568
 C           -1.69773728        2.52365746        0.40123331
 C           -3.11008456       -0.84294750        0.10137552
 C           -2.98446378        0.52839923       -0.08732349
 C           -2.14552688       -2.86966012       -0.59531524
 C           -2.93059786       -1.73143978       -1.03712887
 C            0.15002640       -3.65359774       -0.90037168
 C           -1.17686568       -3.38862239       -1.43249787
 C            2.10797761       -2.30756841       -1.65299986
 C            1.11332445       -3.32833609       -1.93925687
 C            1.89384356        0.07039212       -2.21519953
 C            1.95848370       -1.25655017       -2.63909449
 C            1.12232801        2.32264716       -2.59221714
 C            1.28141019        1.01883820       -3.04174038
 C           -0.59778960        3.46025764       -1.51779968
 C           -1.73007556        2.87878482       -0.94664038
 C           -0.14430560        3.00915834       -2.81798408
 C           -3.26358743        1.03037132       -1.35665911
 C           -2.67177413        2.28559545       -1.77311282
 C           -2.72337956       -1.17025126       -2.29507503
 C           -3.21044119        0.12166710       -2.49288985
 C           -1.02727702       -2.83920132       -2.76908433
 C            0.38063764       -2.91956920       -3.12038165
 C            1.02756582       -1.73450026       -3.65123372
 C           -1.74218347       -1.70335129       -3.15065162
 C            0.53684545        0.59836257       -4.14370146
 C            0.23483832       -0.80885807       -4.30482554
 C           -1.20989207       -0.93182040       -4.18780406
 C           -1.07002701        2.45998745       -3.69245253
 C           -2.41510530        2.20672855       -3.20418283
 C           -2.81863357        0.88648152       -3.65860842
 C           -0.67259548        1.32272506       -4.50023094
 C           -1.77063409        0.36621886       -4.50296857
