   70
C70 / DATE: 7/ 1/2024 / Origin: Program Fullerene / C70 from database
 C            1.48591579       -0.11067493        4.66957566
 C            0.69192497       -1.28129754        4.36215019
 C            1.51560400       -2.14938623        3.54680569
 C            2.63177330       -0.12286879        3.77408060
 C            2.52994936       -1.30037773        2.94165323
 C            2.68167922        1.16056254        3.12346127
 C            0.68969017        1.05515662        4.33952722
 C            1.52645833        1.93554922        3.55392025
 C           -0.57957319       -0.84351668        3.80707503
 C           -0.55039204        0.60513655        3.74260882
 C           -1.10128270       -1.56676824        2.73633271
 C            0.85716275       -3.03621387        2.72221838
 C           -0.56656537       -2.82939952        2.50550886
 C            1.40345170       -3.26138389        1.40422030
 C            2.56143241       -1.16297974        1.54807475
 C            2.05331392       -2.20750546        0.76363357
 C            3.02286631        1.22554599        1.78001423
 C            2.80494213        0.09419473        0.96625308
 C            2.90424744        2.48794665        1.21588455
 C            0.92253318        2.74550674        2.59779189
 C            1.77357893        3.29498008        1.64244655
 C           -0.96751273        1.23195280        2.58034386
 C           -0.39849834        2.45983655        2.22833785
 C           -1.71470450       -0.89015892        1.67227732
 C           -1.69443361        0.50951330        1.63156137
 C           -2.17138118       -1.61034895        0.55678083
 C           -0.89096967       -3.51417292        1.27592628
 C            0.36569561       -3.97378828        0.69634229
 C           -1.84639966       -2.97357505        0.42695466
 C            0.44971333       -4.04491041       -0.68084071
 C            1.83296978       -2.01151494       -0.60442180
 C            1.23400399       -3.02218147       -1.35974728
 C            2.60863096        0.25062590       -0.41495883
 C            1.91805097       -0.72462624       -1.12882684
 C            3.05034858        2.63983514       -0.20938071
 C            2.87805779        1.46544128       -1.03084421
 C            1.22172681        3.94834444        0.47038835
 C            2.08884341        3.63816429       -0.64887531
 C           -0.98902460        3.18556343        1.20243007
 C           -0.15105428        3.93764724        0.27889368
 C           -2.26472984        1.18741599        0.55544893
 C           -2.04439516        2.55891601        0.42638044
 C           -2.80903241       -0.92602953       -0.49077305
 C           -2.80342015        0.47223847       -0.51462636
 C           -3.19315822       -1.60943576       -1.64497550
 C           -1.98699839       -3.60584857       -0.80303206
 C           -0.79695151       -4.17897761       -1.40644210
 C           -2.73465208       -2.96499125       -1.85425415
 C            0.53561328       -2.67153286       -2.58665916
 C           -0.62009811       -3.54352970       -2.69405864
 C           -1.89430298       -2.95877551       -3.04744916
 C            1.25021202       -0.39417448       -2.31975656
 C            0.41106722       -1.32861133       -2.93155498
 C            2.08409443        1.85859115       -2.17729788
 C            1.49651405        3.15655818       -1.87979618
 C            1.29291584        0.91123985       -2.81497101
 C           -0.69329141        3.75126123       -1.06088755
 C           -2.01510937        3.15940457       -0.89318807
 C            0.13581483        3.33475708       -2.11105960
 C           -3.12894948        1.14405207       -1.69848972
 C           -2.58649953        2.47024035       -1.94660340
 C           -3.04258428       -0.95162901       -2.92661549
 C           -1.90681007       -1.60423210       -3.55095982
 C           -0.71150557       -0.89315134       -3.65118901
 C           -3.08625770        0.42930199       -2.96263635
 C            0.21993019        1.37672420       -3.56632379
 C           -0.42145780        2.62152033       -3.16668160
 C           -1.85512687        2.40791088       -3.19531637
 C           -0.81506557        0.45157443       -3.98724016
 C           -2.09853861        1.10535862       -3.78456933
