   70
C70 / DATE: 7/ 1/2024 / Origin: Program Fullerene / C70 from database
 C            1.36084152       -0.23340602        4.25462388
 C            2.38812958       -0.36686728        3.23785737
 C            2.24240987       -1.67872895        2.62333317
 C            0.48960250       -1.39221576        4.15922302
 C            1.07638397       -2.32010876        3.21143584
 C           -0.85633676       -0.91044693        3.91062088
 C            0.52399766        0.95089568        4.25890507
 C           -0.86343116        0.51050535        4.20882128
 C            0.92209756        2.05351544        3.51481032
 C            2.71548627        0.72169366        2.43295718
 C            2.05350777        1.94139596        2.60320795
 C            3.37460517        0.47499278        1.23232410
 C            2.51022309       -1.81854758        1.25974800
 C            3.31306317       -0.85994990        0.65412905
 C            1.70105751       -2.64101513        0.46699366
 C            0.22817959       -3.03781103        2.38751384
 C            0.69033391       -3.39377271        1.06485269
 C           -1.54957258       -1.39037701        2.79822270
 C           -1.15590278       -2.60063131        2.24261431
 C           -2.37634991       -0.52806439        2.07168388
 C           -1.81674932        1.30988430        3.59841540
 C           -2.72331490        0.69460147        2.64669618
 C           -0.08103006        2.89481148        2.88142402
 C           -1.42774382        2.60014078        3.04836260
 C            1.77128074        2.77567524        1.44306129
 C            0.41362728        3.26994838        1.56277418
 C            3.24265365        1.42283167        0.14149560
 C            2.23788467        2.38327110        0.19874822
 C            3.30256756       -0.71943547       -0.79058739
 C            3.46743341        0.69256475       -1.09322438
 C            1.73117454       -2.53766452       -0.93031852
 C            2.41727216       -1.48166300       -1.54517431
 C            0.85733857       -3.32834265       -1.67535528
 C           -0.49959920       -3.70863125        0.30158017
 C           -1.57809024       -2.93807637        0.89784759
 C           -0.39768762       -3.74169504       -1.07446238
 C           -2.64593401       -0.77623070        0.71038104
 C           -2.23937553       -1.98710452        0.12556361
 C           -3.27591505        0.20293334       -0.07729309
 C           -3.23172106        1.75608594        1.81213535
 C           -2.34590837        2.90045588        1.96674573
 C           -3.37209590        1.50376257        0.40038181
 C           -0.43314665        3.22000524        0.45622033
 C           -1.80995419        3.21677086        0.65323652
 C           -2.65414991        2.54707376       -0.31321838
 C            1.45711360        2.62198915       -0.93167872
 C            0.07894465        2.84702529       -0.79051669
 C            2.92357803        1.18926577       -2.26460082
 C            1.98900202        2.29796679       -2.17523919
 C            2.06463574       -1.04480050       -2.83096844
 C            2.37744611        0.25415427       -3.22849544
 C            0.56364886       -2.97019403       -3.04695858
 C            1.13176741       -1.75374141       -3.58170761
 C           -1.44663704       -3.11881916       -1.85603643
 C           -2.24999662       -2.14381890       -1.26483646
 C           -0.88430702       -2.87638008       -3.17333858
 C           -3.26603794        0.07138415       -1.45955541
 C           -2.81577137       -1.16112097       -2.06535412
 C           -2.13576219        2.23415627       -1.56158292
 C           -0.80618789        2.55460524       -1.84188896
 C           -2.72763777        1.17281449       -2.24156061
 C            1.11601401        2.22628453       -3.32700173
 C            1.41951655        0.99132478       -4.03382809
 C           -0.31301717        2.27600906       -3.11383792
 C            0.06572589       -1.03013030       -4.25932141
 C           -1.19439092       -1.63198875       -3.85334756
 C           -2.20807653       -0.82809478       -3.34820921
 C           -2.08797324        0.62004207       -3.42256475
 C            0.16319778        0.35157949       -4.38266392
 C           -0.91193762        1.19745814       -3.88422050
