   70
C70 / DATE: 7/ 1/2024 / Origin: Program Fullerene / C70 from database
 C            1.28346587       -0.04459890        4.40520370
 C            2.57921192       -0.36234002        3.84971417
 C            2.52657525       -1.73011679        3.36057044
 C            0.43536285       -1.21731214        4.24445253
 C            1.13617016       -2.14899988        3.39016735
 C           -0.86701284       -0.74783988        3.83026111
 C            0.55122136        1.08235800        3.85956115
 C           -0.84609711        0.70062329        3.90807654
 C            1.03513550        1.73806423        2.72499326
 C            3.08932747        0.46016764        2.77370563
 C            2.37768685        1.58050037        2.34523475
 C            3.23973376       -1.77937681        2.09533269
 C            3.65507033       -0.42479334        1.76862230
 C            2.73401853       -2.57994427        1.08803094
 C            0.54100390       -2.57727383        2.20579132
 C            1.36776659       -3.07470873        1.20018146
 C           -1.49341795       -1.33522113        2.73775474
 C           -0.76926341       -2.18834554        1.88860366
 C           -2.64330995       -0.71574190        2.25322725
 C           -1.74843406        1.39950954        3.12628981
 C           -2.80487622        0.65590656        2.46341968
 C            0.12349429        2.35130108        1.85264866
 C           -1.23380872        2.34470924        2.14880201
 C            0.53522861        2.76908349        0.59061072
 C            2.82604528        2.19081517        1.17924752
 C            1.89301677        2.95441821        0.37752140
 C            3.66401881        0.01566594        0.44490613
 C            3.61964255        1.39299853        0.25666345
 C            2.92676615       -2.17127707       -0.28795747
 C            3.22176169       -0.83917301       -0.58036818
 C            0.85025044       -3.22718811       -0.14704557
 C            1.91764561       -2.86405826       -1.06393733
 C           -1.30518528       -2.53376831        0.64200175
 C           -0.45257237       -2.82837506       -0.42049982
 C           -3.34802191       -1.32934840        1.22722534
 C           -2.64299963       -2.27105656        0.37830709
 C           -4.20527104       -0.51916471        0.38021385
 C           -3.27506871        1.49815756        1.37747321
 C           -2.18848045        2.40875491        1.05505728
 C           -3.99413499        0.91679728        0.34665669
 C           -0.35938512        2.71632176       -0.49334724
 C           -1.72204291        2.47910292       -0.25565845
 C            0.11128231        2.82991321       -1.81143712
 C            2.40581092        2.96626148       -0.97284871
 C            3.42000210        1.92738172       -1.06902257
 C            1.47638311        2.77090055       -2.05860974
 C            2.90495159       -0.33510756       -1.85330801
 C            3.02398950        1.02257992       -2.12375038
 C            1.97789286        1.68500491       -2.88476182
 C            1.58241862       -2.36776270       -2.30829577
 C            2.16994996       -1.11265675       -2.74647186
 C           -0.80486199       -2.46356565       -1.72473372
 C            0.18545944       -2.34861301       -2.69854971
 C           -3.05725273       -2.03764265       -0.99453353
 C           -4.09352595       -1.02139717       -0.97694412
 C           -2.09217192       -1.99419190       -1.99682155
 C           -3.67743575        1.27843349       -1.02392092
 C           -2.56066498        2.07230945       -1.29799168
 C           -3.95376172        0.11774718       -1.86110742
 C           -0.71395709        2.44890300       -2.86014807
 C           -2.10610119        2.14331057       -2.60795192
 C            1.05550506        0.92207459       -3.59692606
 C            1.21383062       -0.46690929       -3.63874781
 C            0.04986179       -1.34367172       -3.73338715
 C           -0.20430852        1.47699612       -3.81779117
 C           -2.31632475       -1.19072623       -3.12044963
 C           -3.21585886       -0.04733028       -3.02280723
 C           -2.50211324        1.10283567       -3.54085404
 C           -1.20227112       -0.80244288       -3.97366592
 C           -1.30696591        0.62213286       -4.21187789
