   70
C70 / DATE: 7/ 1/2024 / Origin: Program Fullerene / C70 from database
 C            1.20819526       -0.03232718        4.28428496
 C            2.53234728       -0.39231792        3.83083579
 C            2.49372962       -1.77826109        3.38939358
 C            0.38593603       -1.22939305        4.22199306
 C            1.11479843       -2.22949128        3.47573927
 C           -0.91379479       -0.83537274        3.73459284
 C            0.49740254        1.02550921        3.58448996
 C           -0.87782192        0.59407071        3.45927579
 C            1.10096065        1.66909873        2.50849082
 C            3.12265711        0.38675802        2.76589154
 C            2.48114515        1.53266673        2.30437370
 C            3.18375774       -1.86254248        2.11119415
 C            3.65813223       -0.53155144        1.77697729
 C            2.64165430       -2.65286652        1.11262591
 C            0.51868369       -2.79637578        2.35282821
 C            1.33961270       -3.26338353        1.32559041
 C           -1.58045293       -1.65384770        2.83107589
 C           -0.85480143       -2.62616104        2.12173697
 C           -2.73128250       -1.11382637        2.26804762
 C           -1.65694302        1.07307175        2.41231223
 C           -2.78398233        0.32756897        2.08592566
 C            0.29422515        2.20804558        1.49779114
 C           -1.07113934        1.87630210        1.42614826
 C            0.87370503        3.02834377        0.52474423
 C            3.05001768        2.13337512        1.19072341
 C            2.25718585        3.04102614        0.39025157
 C            3.68583261       -0.09929622        0.45250043
 C            3.78325124        1.27701674        0.27060003
 C            2.68059470       -2.18324662       -0.26196874
 C            3.05895634       -0.87141278       -0.53978160
 C            0.77777616       -3.53240094        0.01661928
 C            1.52767689       -2.74305203       -0.94697404
 C           -1.43256593       -3.25631995        1.01692306
 C           -0.59549140       -3.61981469       -0.11475351
 C           -3.35046309       -1.73619910        1.11429125
 C           -2.69988496       -2.78348338        0.48214516
 C           -3.48900715        0.59418007        0.85159979
 C           -3.95742714       -0.67943617        0.32179802
 C           -1.82544520        2.24796734        0.30499313
 C           -2.99913412        1.55945413       -0.01857897
 C            0.09979590        3.51520403       -0.52471182
 C           -1.30222489        3.16027049       -0.60320686
 C            0.63848522        3.50636207       -1.88016888
 C            2.83558173        3.03478097       -0.94188145
 C            3.63954186        1.82912447       -1.05703200
 C            1.94290359        3.07707370       -2.08380294
 C            2.56967737       -0.26293684       -1.70439095
 C            3.02904147        1.00095157       -2.06847210
 C            2.17988297        1.86954872       -2.86402784
 C            0.84803606       -1.95574421       -1.87043017
 C            1.47305454       -0.81726459       -2.37520806
 C           -1.21853601       -3.07333369       -1.30487611
 C           -2.60331180       -2.80285413       -0.97138813
 C           -0.51774464       -2.16589932       -2.09871342
 C           -4.07485853       -0.83372460       -1.05310603
 C           -3.29432868       -1.86388051       -1.72405154
 C           -3.47376398        1.57405229       -1.32944491
 C           -4.03540956        0.35643976       -1.88539123
 C           -1.65117080        3.04806588       -2.01015567
 C           -0.41042756        3.03648454       -2.76714031
 C           -2.68355492        2.19672183       -2.37527755
 C            1.13459081        1.30213425       -3.57670540
 C            0.86365806       -0.11545210       -3.40918074
 C           -0.14736648        1.98576425       -3.64006752
 C           -1.22832169       -1.31270885       -2.94965543
 C           -2.61809715       -1.23563858       -2.84686923
 C           -3.27417185        0.03744889       -3.08057916
 C           -2.45627408        1.19171083       -3.40576851
 C           -0.54771303       -0.32993357       -3.66585143
 C           -1.16557105        0.97515739       -3.86919217
