   70
C70 / DATE: 7/ 1/2024 / Origin: Program Fullerene / C70 from database
 C            1.46814145        0.08543123        5.12062904
 C            0.66351036       -1.07402613        4.78338834
 C            1.49280498       -1.95946540        4.00003647
 C            2.62730066        0.07968981        4.24281720
 C            2.69810354       -1.22766337        3.63309138
 C            2.52898716        1.24376046        3.38055964
 C            0.69127035        1.26856471        4.80165319
 C            1.51421730        2.11073427        3.95824842
 C           -0.57779274       -0.60256347        4.19979109
 C           -0.60003759        0.84769634        4.28111874
 C           -1.06943959       -1.19709486        3.04677894
 C            0.94134771       -2.51463312        2.77866955
 C           -0.37117814       -2.24126998        2.41848316
 C            2.82255675       -1.31279241        2.19278976
 C            1.94879070       -2.38127497        1.75305475
 C            2.58144575        1.09359754        1.98959193
 C            2.87385092       -0.15564985        1.41811010
 C            2.08842990        2.12736614        1.18083109
 C            0.85729912        2.98522618        3.11353209
 C            1.38142108        3.17017944        1.77637215
 C           -1.15208371        1.58124301        3.22598394
 C           -0.57878996        2.82127334        2.94501879
 C           -2.00749243       -0.48472817        2.31069201
 C           -1.88123298        0.90762649        2.22816225
 C           -2.70960057       -1.17378180        1.33566620
 C           -0.76551017       -2.61019157        1.13276049
 C           -2.08158682       -2.35598002        0.78040192
 C            1.52878169       -2.35744454        0.43068925
 C            0.20879734       -2.69479266        0.12534506
 C            2.72432907       -0.31195256        0.04304947
 C            2.20135779       -1.51633660       -0.44420071
 C            2.04110562        1.95851649       -0.20861561
 C            2.64718002        0.82591140       -0.75124981
 C            1.09474928        2.65719169       -0.97828923
 C            0.32076301        3.80938973        1.03181708
 C           -0.92590304        3.50862979        1.72213582
 C            0.14454053        3.44673394       -0.35452225
 C           -2.28427072        1.57736568        1.05585909
 C           -1.79214659        2.84634600        0.77426612
 C           -1.24399380        3.08957214       -0.54539553
 C           -3.28315665       -0.43791450        0.23276337
 C           -2.82901550        0.85092165       -0.00591862
 C           -2.48108897       -2.45839014       -0.60423270
 C           -3.40837271       -1.36948997       -0.87104080
 C           -0.17307947       -2.68703396       -1.22410057
 C           -1.53053871       -2.77737710       -1.56468220
 C            1.93219607       -1.63314750       -1.80103287
 C            0.77268039       -2.31378980       -2.19254189
 C            2.65647923        0.66063510       -2.13183062
 C            2.49619417       -0.68277240       -2.64573181
 C            0.77100668        2.16502937       -2.23661214
 C            1.76920593        1.49143210       -2.91670074
 C           -1.54630180        2.18182344       -1.55158116
 C           -2.56114378        1.25785514       -1.32048832
 C           -0.57711730        1.88918172       -2.51857275
 C           -3.47207902       -0.86871844       -2.15975819
 C           -3.00043055        0.48841835       -2.39357515
 C           -1.92107927       -2.67078515       -2.89728379
 C           -2.94964052       -1.69992623       -3.22991819
 C            0.46765169       -2.43943244       -3.54694095
 C           -0.91535187       -2.60711824       -3.93692833
 C            2.02693169       -0.55703542       -4.01042833
 C            1.44519658        0.77221434       -4.12960849
 C            1.04745155       -1.50599418       -4.49337589
 C           -0.92766081        1.05529851       -3.59015720
 C           -2.19965998        0.47641475       -3.60841397
 C           -2.39894517       -0.81809100       -4.23912605
 C           -1.26039133       -1.49828013       -4.82013919
 C            0.05198715        0.59982786       -4.47610117
 C           -0.05195100       -0.73416010       -5.04506266
