   70
C70 / DATE: 7/ 1/2024 / Origin: Program Fullerene / C70 from database
 C            1.26531950       -0.00892947        4.45363107
 C            2.55018628       -0.23586756        3.84039838
 C            2.59096441       -1.63104090        3.44309751
 C            0.45623825       -1.20752130        4.25453110
 C            1.21715822       -2.10419153        3.42291241
 C           -0.84100612       -0.76515505        3.79316920
 C            0.46329230        1.09969170        3.98507981
 C           -0.90071775        0.64296934        4.12889993
 C            0.81052456        1.77468823        2.80836613
 C            2.89825730        0.54050018        2.67037577
 C            1.94336027        1.37852239        2.08398029
 C            3.36127954       -1.70788537        2.21445391
 C            3.68513170       -0.34056441        1.82608810
 C            2.93736720       -2.60186302        1.24071575
 C            0.68642130       -2.54450147        2.21486393
 C            1.57483838       -3.11042660        1.31113137
 C           -1.30616754       -1.16630540        2.53914588
 C           -0.54549515       -2.04686692        1.74991956
 C           -2.32344322       -0.40812407        1.94883935
 C           -1.87842858        1.39982042        3.52744272
 C           -2.78358700        0.72528851        2.62128910
 C           -0.18832140        2.52293557        2.17548310
 C           -1.44395406        2.56620744        2.79175246
 C           -0.07547013        2.81165658        0.80722299
 C            2.02242308        1.64627144        0.71471720
 C            0.93405316        2.21304340        0.05218228
 C            3.80550264       -0.02461763        0.48243571
 C            3.07887812        1.12634311       -0.02272819
 C            3.22743872       -2.32600839       -0.15596865
 C            3.69921662       -1.07628032       -0.51950676
 C            1.13862406       -3.38747172       -0.03304127
 C            2.17854279       -2.94207990       -0.94761573
 C           -0.97808675       -2.35387833        0.44806367
 C           -0.18145908       -3.16155711       -0.38339153
 C           -2.61142452       -0.58188022        0.59340800
 C           -2.10810512       -1.69950856       -0.06783166
 C           -3.23323822        0.43246653       -0.15317675
 C           -3.43125788        1.78501804        1.87662282
 C           -2.60847166        2.97961441        2.04027439
 C           -3.64924822        1.60575746        0.46150175
 C           -1.08443145        3.51336542        0.15539522
 C           -2.41222318        3.55888197        0.73448529
 C           -3.29508631        2.85247931       -0.17558139
 C           -1.27188830        3.30755113       -1.26367262
 C           -2.61534148        2.77361872       -1.44879693
 C            0.87474622        2.21426604       -1.35762495
 C           -0.25031288        2.74130619       -2.01542606
 C            2.91675510        0.93356446       -1.44478318
 C            3.20026104       -0.46466838       -1.73532628
 C            1.85554932        1.53565087       -2.10266152
 C            1.78891192       -2.38765736       -2.16651457
 C            2.33371386       -1.16064258       -2.57958775
 C           -0.46382596       -3.24646838       -1.73947868
 C            0.56086105       -2.81190154       -2.67736228
 C           -2.52483018       -1.93092283       -1.37684451
 C           -1.74343004       -2.79757099       -2.22642553
 C           -3.10743838        0.42854598       -1.54381133
 C           -2.74159087        1.61217052       -2.20427924
 C           -2.95738441       -0.79931120       -2.17749116
 C           -0.63005605        2.20358435       -3.24248229
 C           -1.91761941        1.53581404       -3.32026947
 C            1.53432631        1.01499174       -3.35239238
 C            1.69653192       -0.41418442       -3.56956800
 C            0.31872454        1.43139554       -4.00593438
 C           -0.09250252       -2.07537822       -3.74128624
 C           -1.52604482       -2.11640984       -3.49214230
 C           -2.28380142       -0.87718866       -3.46342474
 C           -1.72719838        0.27125279       -4.00421605
 C            0.48607396       -0.90588710       -4.20424056
 C           -0.35858519        0.24148294       -4.49699121
