   70
C70 / DATE: 7/ 1/2024 / Origin: Program Fullerene / C70 from database
 C            1.18602542       -0.02108678        4.61245323
 C            2.49105076       -0.28044581        4.03691979
 C            2.47227629       -1.63575020        3.51296968
 C            0.36435601       -1.20136204        4.38474667
 C            1.09135321       -2.08407833        3.50428865
 C           -0.93828634       -0.75412277        3.96639392
 C            0.42790618        1.13497577        4.16410107
 C           -0.93916664        0.69837327        3.96290004
 C            0.98921586        2.02316582        3.25947892
 C            2.98583448        0.58890870        2.98547837
 C            2.29270888        1.74821724        2.66476063
 C            3.19884907       -1.63866864        2.26038708
 C            3.49173859       -0.25475689        1.91562732
 C            2.75093161       -2.48066114        1.25497971
 C            0.51857759       -2.47489598        2.29166247
 C            1.37066551       -2.94963177        1.29755203
 C           -1.57229138       -1.39570944        2.91112988
 C           -0.78620162       -2.06466647        1.95684017
 C           -2.76919619       -0.81958122        2.51192655
 C           -1.75299146        1.32790561        3.02515051
 C           -2.89680807        0.62132480        2.66954424
 C            0.14564154        2.61361715        2.23375678
 C           -1.17393419        2.19065881        2.07772442
 C            2.24605083        2.18267035        1.28221986
 C            0.96273317        2.81464254        1.05006099
 C            3.36115791        0.14639124        0.58581468
 C            2.77635209        1.38411610        0.27791988
 C            3.03742746       -2.12308899       -0.11992578
 C            3.46024528       -0.82896060       -0.41156078
 C            0.89840702       -3.04984917       -0.06777149
 C            2.00412581       -2.72093308       -0.94830832
 C           -1.23582093       -2.16775837        0.62469746
 C           -0.36090758       -2.58062028       -0.38714079
 C           -3.34027121       -1.16641056        1.23258011
 C           -2.54654628       -1.80326190        0.28868027
 C           -3.72542025        1.11335592        1.59507220
 C           -4.15690006       -0.03744707        0.82002588
 C           -1.79414742        2.38895912        0.83578465
 C           -3.13752698        2.05454857        0.67412821
 C            0.37234595        2.68259244       -0.20015753
 C           -1.01754789        2.68709067       -0.29050076
 C            2.39501397        1.64451119       -1.03515067
 C            1.13607930        2.21831946       -1.27893831
 C            3.42851827       -0.42999968       -1.74147917
 C            3.04147207        0.93338374       -2.03326798
 C            1.74006134       -2.13929010       -2.18449597
 C            2.70138680       -1.26080497       -2.68352150
 C           -0.63659648       -2.27676710       -1.71646882
 C            0.40969328       -2.02277501       -2.61196604
 C           -2.91922959       -1.71798018       -1.05389458
 C           -1.94797063       -2.01820748       -2.08783411
 C           -4.14716494        0.34958175       -0.57724898
 C           -3.63815750        1.71359820       -0.64550903
 C           -3.71159152       -0.58155232       -1.50955191
 C           -1.60647967        2.72528699       -1.54876470
 C           -2.90818097        2.11329755       -1.75418336
 C            0.57285168        2.20136530       -2.56489480
 C           -0.79338387        2.43586228       -2.71576805
 C            2.52273728        0.95790454       -3.38307347
 C            2.39845385       -0.42396254       -3.82674107
 C            1.25544119        1.60840655       -3.62511772
 C            0.12583482       -1.43224203       -3.84601482
 C            1.10915053       -0.56707958       -4.46497482
 C            0.51719441        0.75716846       -4.54161798
 C           -2.21537946       -1.14502459       -3.21757833
 C           -3.13751303       -0.11812690       -2.76060827
 C           -2.79428065        1.22269625       -2.89797428
 C           -1.57262087        1.57635617       -3.59865387
 C           -1.16465954       -0.79917321       -4.05449952
 C           -0.91269213        0.60748070       -4.34259873
