   70
C70 / DATE: 7/ 1/2024 / Origin: Program Fullerene / C70 from database
 C            1.37131647       -0.01413935        4.52702347
 C            2.65358365       -0.16490224        3.86684977
 C            2.63713635       -1.42766295        3.14810073
 C            0.53590896       -1.13932214        4.14183377
 C            1.30768252       -1.99174751        3.25389739
 C           -0.73380796       -0.61803076        3.66421279
 C            0.61284045        1.20113281        4.30186243
 C           -0.71225270        0.82262066        3.82419139
 C            1.24897048        2.29831247        3.73379404
 C            3.09595436        0.86813438        2.94420900
 C            2.45629204        2.10066756        2.93801870
 C            3.17236299       -1.19543305        1.82254221
 C            3.40993233        0.22756514        1.67655398
 C            2.60574393       -1.86091208        0.74534635
 C            0.69675851       -2.45910597        2.09632935
 C            1.46386544       -2.64572727        0.94304710
 C           -1.27427934       -1.15717639        2.50365028
 C           -0.67708968       -2.29246060        1.96091807
 C           -2.09811091       -0.36854167        1.69525769
 C           -1.35642877        1.61404684        2.87722282
 C           -2.18258404        1.01119597        1.92305535
 C            0.43608696        3.28384039        3.04997300
 C           -0.91624029        2.92256208        2.67017528
 C            2.25761273        2.77728233        1.66958265
 C            1.13135525        3.67250454        1.83191612
 C            3.04635437        0.83139773        0.47268616
 C            2.37311121        2.05914971        0.48403056
 C            2.84601557       -1.35026626       -0.52435285
 C            2.98699726        0.03467566       -0.67335282
 C            2.50205083       -2.14458758       -1.61009202
 C            0.86823307       -3.25432147       -0.16690844
 C            1.52898579       -3.19906686       -1.39410277
 C           -1.31389712       -2.94146728        0.91895779
 C           -0.50042364       -3.53302803       -0.12948956
 C           -2.68838522       -0.94323195        0.56054048
 C           -2.44203315       -2.28775497        0.28412589
 C           -3.32003327       -0.14332386       -0.39833061
 C           -2.81796342        1.82248270        0.98967365
 C           -3.36744303        1.23507212       -0.21798450
 C           -1.15882480        3.55681775        1.38921625
 C            0.14233164        3.74256807        0.77052508
 C           -2.18692721        3.07326819        0.60348538
 C            1.61748349        2.44739928       -0.62660104
 C            0.40162790        3.11320844       -0.44667261
 C            2.66538931        0.64200495       -1.88300849
 C            1.89530367        1.87000036       -1.85638512
 C            2.22758966       -1.53763053       -2.90031849
 C            2.19669503       -0.15735902       -3.00022682
 C            0.78508064       -3.37243171       -2.62920631
 C            1.18370170       -2.31195179       -3.54233223
 C           -1.29402026       -3.52293230       -1.35137493
 C           -2.51306857       -2.77392869       -1.08213564
 C           -0.66391906       -3.40150524       -2.58258949
 C           -3.56255435       -0.64709635       -1.67781485
 C           -3.05173970       -1.95229098       -2.05960581
 C           -3.39034651        0.23559161       -2.81741110
 C           -3.00479514        2.11034635       -1.32583784
 C           -1.97070054        2.98763547       -0.82614212
 C           -0.66991791        2.84685223       -1.30733310
 C           -2.84712806        1.55915302       -2.58430162
 C            0.83409351        1.75352630       -2.83983087
 C            1.02335636        0.50181314       -3.55832000
 C           -0.45270902        2.16347347       -2.50896500
 C           -1.53072299        1.61108029       -3.20412577
 C           -0.01995726       -1.63594725       -3.99116449
 C           -1.15547797       -2.43525538       -3.55171582
 C           -2.37960624       -1.81355777       -3.34531060
 C           -2.53197489       -0.43653755       -3.77485661
 C           -0.09211716       -0.24200133       -3.94364428
 C           -1.34032424        0.37525416       -3.95096036
