   70
C70 / DATE: 7/ 1/2024 / Origin: Program Fullerene / C70 from database
 C            1.40832658       -0.03022689        4.21594469
 C            2.46569119       -0.13398238        3.22725113
 C            2.35609351       -1.44627211        2.60523191
 C            0.55474647       -1.19882103        4.08107022
 C            1.09184069       -2.02657376        3.01377023
 C           -0.81954890       -0.74411050        3.98776117
 C            0.56374929        1.14546582        4.21273991
 C           -0.80668858        0.70961796        3.97178198
 C            1.02762631        2.29042726        3.58397604
 C            2.79112519        0.97158953        2.43960660
 C            2.14026126        2.19132451        2.64546330
 C            3.42561651        0.75447112        1.21805712
 C            2.76706593       -1.60356705        1.29102499
 C            3.54593496       -0.60310015        0.71791060
 C            2.05798176       -2.46764135        0.45843872
 C            0.23061786       -2.52585336        2.04005768
 C            0.71750931       -2.76198817        0.75090556
 C           -1.67931680       -1.41719097        3.13709036
 C           -1.14353966       -2.43806864        2.24762380
 C           -2.66183433       -0.66094173        2.38372402
 C           -1.60729153        1.40752859        3.06315755
 C           -2.54688442        0.72193703        2.28313075
 C            0.05763653        3.21080752        3.02302782
 C           -1.28597019        2.72960248        2.75636148
 C            1.82418603        3.02303615        1.49351197
 C            0.59367846        3.72507772        1.77265214
 C            3.08586057        1.59950404        0.08250196
 C            2.05211992        2.51522023        0.21999994
 C            3.65589562       -0.52352897       -0.72888736
 C            3.18146503        0.79279064       -1.12103967
 C            2.55854226       -2.69552970       -0.81845252
 C            3.27125640       -1.61879072       -1.48370538
 C            1.72336835       -3.34494026       -1.80639637
 C           -0.17194429       -3.13003964       -0.27103160
 C            0.31550870       -3.50487802       -1.52009510
 C           -2.04293055       -2.53856302        1.11607546
 C           -2.99323574       -1.43840607        1.19995099
 C           -1.54048946       -2.89413054       -0.12606726
 C           -3.38596488       -0.78873230        0.03083481
 C           -3.17001008        1.36432425        1.21549027
 C           -3.57168241        0.59130498        0.04671286
 C           -1.68205838        3.28581107        1.47655462
 C           -0.46392032        3.67606997        0.78919003
 C           -2.67013637        2.64610020        0.74827565
 C            1.03512078        2.54562353       -0.74475869
 C           -0.20849792        3.13843977       -0.46756095
 C            2.19470806        0.89989222       -2.09485285
 C            1.22996802        1.90725890       -1.97442228
 C            2.60051844       -1.39014149       -2.74900759
 C            1.84084898       -2.59155795       -3.04508263
 C            2.02309681       -0.14874039       -3.00933192
 C           -0.41948448       -3.11811687       -2.71306007
 C            0.51141919       -2.45215324       -3.61293086
 C           -2.30519912       -2.58189156       -1.24577845
 C           -3.19433899       -1.43323768       -1.18888964
 C           -1.71122939       -2.62906623       -2.57089480
 C           -2.97820389       -0.64880674       -2.39561232
 C           -2.11782686       -1.42516380       -3.28139849
 C           -3.25093618        1.37614313       -1.13722164
 C           -2.52653615        2.55527670       -0.69541119
 C           -1.30129601        2.85405584       -1.28640213
 C           -2.83942350        0.73586543       -2.30156188
 C            0.27733254        2.07637740       -2.97189418
 C           -1.07543899        2.41980932       -2.58436094
 C           -1.95694982        1.40780206       -3.14590478
 C            1.01791901       -0.07883879       -3.96925407
 C            0.16004740       -1.23537663       -4.18657253
 C           -1.21763161       -0.77668931       -4.11674217
 C            0.18915505        1.10433305       -4.04186686
 C           -1.19739921        0.67276958       -4.14040917
