   70
C70 / DATE: 7/ 1/2024 / Origin: Program Fullerene / C70 from database
 C            1.20659404        0.13438220        4.87891368
 C            2.44374278        0.03265464        4.13162188
 C            2.54681231       -1.33826002        3.68311372
 C            0.40684926       -1.04327602        4.56430425
 C            1.21560454       -1.91623146        3.74325290
 C           -0.85998257       -0.58640608        4.04036381
 C            0.37285470        1.29459903        4.65824381
 C           -0.96961348        0.82156479        4.35957644
 C            0.72661563        2.21326428        3.59351332
 C            2.63747877        0.87951287        2.96316188
 C            1.69352404        1.84879278        2.65056936
 C            3.21199631       -1.32308546        2.39734111
 C            3.16089626        0.04483761        1.89629105
 C            2.89043944       -2.33509008        1.51616729
 C            0.68551094       -2.45255368        2.57125604
 C            1.59444439       -2.98855516        1.66752197
 C           -1.26157233       -1.00070074        2.77773456
 C           -0.55183640       -1.99749337        2.09065919
 C           -2.18704578       -0.22064701        2.08854406
 C           -1.52157364        1.71388274        3.35150406
 C           -0.53227893        2.75474975        3.12596605
 C           -2.17338808        1.16802765        2.24439410
 C           -0.54413787        3.39590692        1.90405198
 C            1.51839803        2.22383136        1.31791679
 C            0.61973135        3.24670439        1.04636989
 C            2.75225615        0.27288856        0.57688441
 C            1.92457045        1.36184345        0.28625512
 C            3.03013254       -2.06872504        0.10637115
 C            2.87799356       -0.75985158       -0.35429163
 C            1.14968479       -3.36315657        0.33842060
 C            2.27811569       -3.11789992       -0.54109454
 C           -1.00412493       -2.40183660        0.82471781
 C           -0.12480359       -2.99533003       -0.08707260
 C           -2.82507951       -0.77355519        0.99299606
 C           -2.24203216       -1.95262984        0.37970078
 C           -3.29326004        0.10033264       -0.06561241
 C           -2.38586206        1.98571360        1.12855373
 C           -1.68881102        3.19003599        1.04349687
 C           -2.97110244        1.45257454       -0.02600839
 C            0.16847936        3.45745361       -0.31121293
 C           -1.27299428        3.66659707       -0.25361507
 C            1.44483981        1.54145883       -1.02264110
 C            0.69320613        2.68260081       -1.33891206
 C            2.45159578       -0.57314474       -1.67101771
 C            1.68777099        0.55844824       -1.99992415
 C            2.02548072       -2.96814799       -1.88399016
 C            2.40053001       -1.70538110       -2.48728893
 C           -0.37849542       -2.93300005       -1.46673224
 C            0.67615296       -3.20625833       -2.34342063
 C           -2.51182915       -1.89017588       -1.04285399
 C           -3.18882201       -0.62983258       -1.31897664
 C           -1.56869944       -2.36126562       -1.94525774
 C           -2.90749473        0.05721136       -2.49818378
 C           -2.93047440        2.17076748       -1.22286710
 C           -2.02797215        3.30781915       -1.35237956
 C           -2.92529473        1.45297627       -2.49166996
 C            0.06837002        2.77584657       -2.57617341
 C           -1.33174217        3.16393776       -2.61277436
 C           -2.04406737        2.17380722       -3.39199098
 C            1.12940850        0.68467056       -3.28632107
 C            0.24873089        1.72682160       -3.55120521
 C           -1.05754073        1.42037073       -4.12940897
 C            1.69540368       -1.65527237       -3.74608563
 C            0.65648401       -2.67942933       -3.69055278
 C            1.06121745       -0.42121523       -4.13063795
 C           -1.67133564       -1.92483835       -3.26673571
 C           -2.26025352       -0.62112183       -3.53565192
 C           -1.34620304        0.09902409       -4.41947941
 C           -0.56468223       -2.09358688       -4.18433876
 C           -0.22751043       -0.77795700       -4.69337026
