   70
C70 / DATE: 7/ 1/2024 / Origin: Program Fullerene / C70 from database
 C            1.51207666        0.04375174        4.83089481
 C            0.74708230       -1.17117143        4.61233129
 C            1.64408833       -2.12900324        4.01819150
 C            2.70342139       -0.03932837        4.00153679
 C            2.85574307       -1.41791598        3.61785541
 C            2.58447775        0.95900840        2.95719695
 C            0.71795172        1.15109689        4.33770360
 C            1.49912502        1.84432327        3.33902776
 C           -0.45880304       -0.81311199        3.88903873
 C           -0.56781615        0.63534915        3.92274815
 C           -0.79898613       -1.48113702        2.70729985
 C            1.19592719       -2.86413934        2.85461764
 C           -0.03509260       -2.56970176        2.25819747
 C            3.07519394       -1.72760031        2.21986473
 C            2.35971912       -2.96532059        2.00048857
 C            2.70845491        0.60149935        1.60696124
 C            2.98215882       -0.72734897        1.24397101
 C            2.20794517        1.49469627        0.65037699
 C            0.81561286        2.46947449        2.31341596
 C            1.47956122        2.59580437        1.10716158
 C           -1.18792208        1.25572021        2.85009600
 C           -0.57796221        2.37289817        2.26969726
 C           -1.68972956       -0.85310489        1.82942988
 C           -2.02347775        0.48588598        2.05701931
 C           -2.01905704       -1.46197070        0.61284625
 C           -0.25999549       -3.07396323        0.97580259
 C           -1.36582252       -2.64455772        0.24118981
 C            2.15496013       -3.35984847        0.69806446
 C            0.80179989       -3.68787894        0.30467786
 C            2.80538206       -1.13101667       -0.08328182
 C            2.64816326       -2.49418777       -0.35295731
 C            2.08456150        1.09534705       -0.68619197
 C            2.45851436       -0.19520685       -1.06043721
 C            1.52060753        1.97055404       -1.62805153
 C            0.93432866        3.47838522        0.19590030
 C            1.14801354        3.24725411       -1.21356050
 C           -1.23702881        3.02308899        1.21913752
 C           -0.46837401        3.81420858        0.36312923
 C           -2.83436478        1.15659566        1.16117399
 C           -2.45506683        2.50372008        0.76856869
 C           -2.93715782       -0.84349303       -0.25219621
 C           -3.32860962        0.46528695       -0.00919863
 C           -3.11610991       -1.32180175       -1.54345678
 C           -1.55597324       -3.18120596       -1.03171733
 C           -2.48944501       -2.55928197       -1.94140801
 C            0.81284378       -3.70847751       -1.14596418
 C            1.96469335       -2.91640639       -1.56356820
 C           -0.39354038       -3.56742830       -1.80953048
 C            2.21518914       -0.62682195       -2.36171437
 C            1.83410617       -2.00787945       -2.59986656
 C            1.11358619        1.49731166       -2.88421935
 C            1.42778598        0.19917748       -3.25247796
 C            0.03330671        2.08620899       -3.53671076
 C            0.08751807        3.95674681       -1.90557438
 C           -0.97846920        4.19100873       -0.94249605
 C           -0.50161612        3.34907994       -3.07454229
 C           -2.88400145        2.69593694       -0.61123796
 C           -3.35487807        1.41186636       -1.11569866
 C           -2.17858489        3.55182641       -1.44384408
 C           -1.91988888        3.15028594       -2.81227340
 C           -3.00346616       -0.39196195       -2.65556298
 C           -1.09332810        1.24885387       -3.90494951
 C           -3.00888472        0.97584872       -2.39726516
 C           -2.25958375        1.80105487       -3.23280366
 C           -1.79409362       -2.32141635       -3.19927131
 C           -0.44222203       -2.82292207       -3.05609293
 C            0.62458009       -2.00586393       -3.40901083
 C            0.38165953       -0.63422383       -3.83185326
 C           -2.00142120       -0.93094007       -3.56150073
 C           -0.91936622       -0.13151694       -3.92512680
