   70
C70 / DATE: 7/ 1/2024 / Origin: Program Fullerene / C70 from database
 C            1.18686239       -0.06368859        4.55029758
 C            2.55524488       -0.28673405        4.12813340
 C            2.63177727       -1.63848453        3.60450425
 C            0.40508114       -1.22861072        4.15646948
 C            1.27449632       -2.12599223        3.43317770
 C           -0.78990987       -0.75663328        3.50059290
 C            0.48831251        1.11767484        4.07641530
 C           -0.81272550        0.68924606        3.60346179
 C            1.17726199        2.08340373        3.35738424
 C            3.14330565        0.60285188        3.14157123
 C            2.50726475        1.79565579        2.82728849
 C            3.49535116       -1.61557304        2.44185682
 C            3.67775644       -0.21777904        2.06561113
 C            3.23847995       -2.53277033        1.43720702
 C            0.89221862       -2.59420128        2.17672254
 C            1.89288346       -3.09086308        1.34511027
 C           -1.19238029       -1.32915999        2.29793164
 C           -0.34160042       -2.21358923        1.61927427
 C           -2.17712449       -0.65901858        1.57601390
 C           -1.44840920        1.38524546        2.58475391
 C           -2.40401745        0.69503799        1.85480761
 C            0.46374747        2.85026925        2.34926305
 C           -0.83798874        2.49819032        1.99146196
 C            2.52753067        2.25376536        1.45218655
 C            1.41612880        3.17327221        1.30336847
 C            3.49790881        0.16687348        0.73079269
 C            2.80950694        1.34627743        0.43170441
 C            3.64864661       -2.18669027        0.09313619
 C            3.69144711       -0.78161964       -0.26841901
 C            1.60835345       -3.32839497       -0.05365199
 C            2.74163670       -2.84900424       -0.82024490
 C           -0.65825400       -2.58644453        0.30396607
 C            0.34361792       -3.05794740       -0.55111771
 C           -2.64820774       -1.21837759        0.38960610
 C           -1.88461045       -2.19588423       -0.25335607
 C           -3.71495726       -0.61205176       -0.27237940
 C           -3.22439947        1.44068350        1.02911041
 C           -4.04446236        0.75892258        0.05370714
 C           -1.36641414        3.00293789        0.79462431
 C           -2.64665553        2.61341278        0.40348413
 C            0.93697376        3.42894135        0.03240931
 C           -0.49959715        3.50934592       -0.17260535
 C            2.24027583        1.53487452       -0.83500223
 C            1.48727869        2.67712032       -1.08208501
 C            3.00160130       -0.63411026       -1.53893952
 C            2.47381624       -1.93510985       -1.91262839
 C            2.21371337        0.49172593       -1.76291060
 C            0.23983385       -2.78000180       -1.90905923
 C            1.21703141       -1.97021264       -2.49298921
 C           -2.14707934       -2.51306748       -1.59067324
 C           -1.02673672       -2.79201256       -2.46997939
 C           -3.84138630       -0.74694697       -1.70983737
 C           -3.12510918       -1.74699344       -2.34986021
 C           -3.99933917        1.53233482       -1.17505611
 C           -2.98137960        2.55758777       -1.01329084
 C           -3.88531737        0.59904936       -2.27620310
 C           -0.74422356        3.21965506       -1.57598831
 C            0.47911327        2.64897945       -2.12282625
 C           -1.97063774        2.68816646       -1.96613297
 C            1.17432555        0.41636871       -2.70406806
 C            0.80190350       -0.84537263       -3.19335916
 C            0.38250242        1.54672909       -2.96128756
 C           -1.23596578       -2.05710820       -3.70456961
 C           -2.57333396       -1.49629610       -3.67091969
 C           -0.30777677       -0.98726794       -4.01633786
 C           -3.05339207        0.93016603       -3.33669605
 C           -2.02482756        1.94500957       -3.14792284
 C           -0.78546841        1.42548013       -3.70586089
 C           -2.48720868       -0.12967261       -4.14959922
 C           -1.08229392        0.17843005       -4.37154894
