   70
C70 / DATE: 7/ 1/2024 / Origin: Program Fullerene / C70 from database
 C            1.58505105        0.02998424        4.72984705
 C            0.78790069       -1.15786221        4.51271710
 C            1.33943323       -1.88329605        3.37768983
 C            2.65447681        0.02192482        3.75073382
 C            2.45901500       -1.11223993        2.87190112
 C            2.68867404        1.33513951        3.14585956
 C            0.73559575        1.17369830        4.43772137
 C            1.44600844        2.00592038        3.50291853
 C           -0.59386865       -0.73037518        4.42706443
 C           -0.56232762        0.67267569        4.04497688
 C           -1.45458418       -1.55730983        3.73855655
 C            0.43836862       -2.45856737        2.48358390
 C           -0.86619434       -2.62131280        2.94173905
 C            0.67099765       -2.35555786        1.10029756
 C            2.56082425       -0.89280504        1.50859398
 C            1.78817064       -1.65475686        0.63034492
 C            3.10509955        1.44515566        1.82279869
 C            3.17575460        0.27695371        1.05234828
 C            2.79054670        2.64212959        1.18480074
 C            0.74394729        2.62407649        2.47863781
 C            1.54101636        3.28363190        1.55479086
 C           -1.10205616        1.05857939        2.81093631
 C           -0.47629208        2.05948563        2.04859280
 C           -2.42952077       -0.94242309        2.86709395
 C           -2.10053262        0.26034412        2.23673856
 C           -1.89105196       -3.04350468        2.01985763
 C           -2.94294527       -2.03558405        2.07687789
 C           -0.28080856       -2.83043801        0.18260076
 C           -1.54225370       -3.21202540        0.62721370
 C           -0.12682458       -2.55590497       -1.17890728
 C            2.02492062       -1.55602104       -0.74022284
 C            1.10382999       -2.08373724       -1.64577095
 C            3.48243213        0.37130808       -0.29859708
 C            2.99461764       -0.66176250       -1.19534223
 C            2.94592053        2.76108123       -0.25312451
 C            3.32944105        1.64739475       -0.98220072
 C            0.94141662        3.82202603        0.36307205
 C            1.85431158        3.57982140       -0.74432107
 C           -0.98563429        2.36642673        0.77677985
 C           -0.35810528        3.32646430       -0.01856472
 C           -2.51556546        0.48812635        0.91431381
 C           -1.92846525        1.52590645        0.17922535
 C           -3.33666480       -1.76329376        0.72158259
 C           -2.69467027       -2.75850269       -0.11763251
 C           -3.34330615       -0.45061994        0.26921548
 C           -1.25903734       -2.56023691       -2.01537469
 C           -2.53256883       -2.43392080       -1.45259977
 C           -1.11851826       -2.33874303       -3.38441827
 C            1.29495059       -1.85070131       -3.00642179
 C            0.18051515       -1.99774332       -3.92028024
 C            2.84265138       -0.04777907       -2.50164674
 C            2.70257758        1.38005373       -2.26849360
 C            1.99997771       -0.65038523       -3.41496607
 C            1.06427261        3.10397151       -1.86490360
 C           -0.32612129        3.13526833       -1.45604597
 C            1.50787479        2.01925306       -2.61787558
 C           -2.15768190        1.63496043       -1.19632112
 C           -1.18236080        2.20473837       -2.00911377
 C           -3.63124087       -0.29677234       -1.08219316
 C           -3.37445275       -1.44003324       -1.94117131
 C           -3.14424575        0.86529953       -1.78916020
 C           -2.08595357       -1.49057623       -4.06133944
 C           -3.18423737       -0.94793529       -3.28785265
 C           -2.99336640        0.49142282       -3.19047610
 C            0.04166853       -0.73486947       -4.63719111
 C            1.00865713        0.17889492       -4.06410034
 C            0.58030408        1.33307155       -3.40681951
 C           -0.78698142        1.53664876       -3.16633911
 C           -1.35503923       -0.36599351       -4.61578226
 C           -1.74774261        0.81175249       -3.86645246
