   70
C70 / DATE: 7/ 1/2024 / Origin: Program Fullerene / C70 from database
 C            1.15476221       -0.12163954        4.91696618
 C            2.49148478       -0.44702453        4.46869588
 C            2.41810907       -1.72254591        3.76484363
 C            0.33945379       -1.30803604        4.72586891
 C            1.02621068       -2.13849131        3.75851395
 C           -0.99557276       -0.85421267        4.41497732
 C            0.44893203        0.97595486        4.27489926
 C           -0.94212033        0.59592966        4.27501384
 C            0.99511701        1.57763940        3.13717216
 C            3.15760106        0.49106973        3.59240447
 C            2.37524265        1.54793241        2.96711018
 C            3.10397260       -1.56687707        2.49050855
 C            3.75976975       -0.28112546        2.52110332
 C            2.44677695       -1.94501619        1.32120284
 C            0.42456728       -2.41377243        2.53185188
 C            1.24688268       -2.64581025        1.43213322
 C           -1.64496636       -1.36567379        3.22357155
 C           -0.93944819       -2.15417469        2.32299615
 C           -1.74319496        0.93980998        3.12711861
 C           -2.41324009       -0.26917068        2.69220931
 C            0.17079266        1.94666503        2.05636553
 C           -1.21927343        1.76927271        2.14033214
 C            0.74451989        2.37459917        0.84065787
 C            2.92139392        1.72375961        1.64414424
 C            3.69104502        0.52780168        1.32967706
 C            2.12774602        2.25363104        0.63682333
 C            2.76725892       -1.32011663        0.10345754
 C            3.43852496       -0.08683163        0.11045074
 C            2.15030878       -1.77783593       -1.07297374
 C            0.68234330       -3.18292686        0.29069605
 C            1.27999758       -2.86335409       -0.98860817
 C           -1.46566453       -2.30637514        1.03605962
 C           -0.75643531       -3.08481682        0.13274000
 C           -2.79643769       -0.30922772        1.36504733
 C           -2.42320188       -1.39386414        0.56304723
 C           -1.98011839        1.88962097        0.98221358
 C           -2.95414743        0.91475430        0.74351277
 C           -0.08761662        2.70223655       -0.24809356
 C           -1.47609230        2.62305180       -0.08529711
 C            0.46502224        2.84231804       -1.53481901
 C            2.59129587        2.04866462       -0.65375052
 C            3.23823369        0.78155937       -0.94816677
 C            1.74735538        2.38288879       -1.77002845
 C            2.17047258       -0.99771865       -2.23825402
 C            2.69208004        0.28517872       -2.18898351
 C            1.94870252        1.37516959       -2.79893419
 C            1.34554058       -1.31851694       -3.31693946
 C            0.24195637       -3.03708737       -1.98392891
 C           -1.03485617       -2.98014288       -1.28412113
 C            0.36839081       -2.38810235       -3.19800631
 C           -2.73766400       -1.33607547       -0.80819674
 C           -2.02298013       -2.11000209       -1.73202051
 C           -3.63831949        0.91664699       -0.45422241
 C           -3.54473075       -0.28418263       -1.26369890
 C           -2.33196828        2.90348932       -1.14948339
 C           -3.50183786        2.06469693       -1.32190306
 C           -0.36266787        2.93083246       -2.64562963
 C           -1.77713275        3.13753941       -2.46229737
 C            0.89829903        1.08014816       -3.66331977
 C            0.73775948       -0.24006981       -4.08790895
 C           -0.17666581        1.97290387       -3.72758206
 C           -0.84151387       -1.96122690       -3.87545247
 C           -2.05050318       -1.78815255       -3.08984549
 C           -0.56218681       -0.70075314       -4.54083463
 C           -3.49655810        0.13166970       -2.65578370
 C           -3.52228445        1.58569701       -2.69180058
 C           -2.48203550        2.28959506       -3.41348264
 C           -1.49496882        1.51660298       -4.14514718
 C           -2.67942128       -0.55984401       -3.53624602
 C           -1.71209678        0.16146437       -4.35862590
