   70
C70 / DATE: 7/ 1/2024 / Origin: Program Fullerene / C70 from database
 C            1.04152524       -0.03345442        4.69793559
 C            2.27305737       -0.33539109        4.00186088
 C            2.24757565       -1.74654526        3.66948478
 C            0.22632065       -1.24151941        4.70138457
 C            0.87826370       -2.19666712        3.83163151
 C           -1.13333094       -0.85338125        4.40279564
 C            0.20786662        1.04126922        4.19970529
 C           -1.15952133        0.59757261        4.33370075
 C            0.55494551        1.71603816        3.03124611
 C            2.57412730        0.38243565        2.78107664
 C            1.73659865        1.39764031        2.34119537
 C            2.86241591       -1.90505279        2.36463547
 C            3.05415270       -0.57551251        1.80190446
 C            2.35808960       -2.89136935        1.53740618
 C            0.21448059       -2.69709983        2.71090331
 C            0.99269942       -3.35369931        1.76388817
 C           -1.74637995       -1.35047414        3.18540781
 C           -1.00868481       -2.13823610        2.30814862
 C           -2.08351701        0.96223138        3.28206308
 C           -2.53958726       -0.26565240        2.64459804
 C           -0.43529700        2.45268250        2.36974174
 C           -1.77441048        2.03713127        2.45583149
 C           -0.03404606        3.28551781        1.32702162
 C            1.87717144        1.82009264        1.02523174
 C            1.20891635        2.97102500        0.64939788
 C            2.76955044       -0.35244150        0.44997893
 C            2.28434238        0.89903393        0.05128722
 C            2.50110328       -2.72466891        0.10836897
 C            2.65049516       -1.44210805       -0.41798122
 C            0.42605605       -3.66926510        0.46696336
 C            1.52390267       -3.61150445       -0.48517605
 C           -1.38756099       -2.17949768        0.96212875
 C           -0.80332553       -3.12240426        0.11298588
 C           -2.80782175       -0.22781437        1.27860910
 C           -2.23502347       -1.19003748        0.43795788
 C           -2.60725654        2.20398909        1.35586414
 C           -3.15876377        1.00831274        0.74002638
 C           -0.98956044        3.70745573        0.31721162
 C           -2.24781984        3.12837318        0.29901880
 C            1.05176568        3.27895545       -0.75296640
 C           -0.26357778        3.87633403       -0.93037800
 C            2.01254166        1.13585018       -1.30309265
 C            1.53024339        2.39129920       -1.71008310
 C            2.28954373       -1.22332892       -1.74721489
 C            2.14115692        0.08159003       -2.21997365
 C            1.22346464       -3.44161022       -1.82283858
 C            1.78868310       -2.28982236       -2.50368802
 C           -1.17966749       -3.16847007       -1.22674260
 C           -0.17145162       -3.51224393       -2.21450717
 C           -2.36656228       -1.05240152       -0.94681487
 C           -1.98367184       -2.09222764       -1.77569780
 C           -3.13171072        1.20250014       -0.69708439
 C           -2.77420137        2.58826901       -0.94526907
 C           -2.60126851        0.20279707       -1.50218271
 C           -0.92431140        3.68056107       -2.13590931
 C           -2.16190427        2.91049804       -2.14705418
 C            1.14032534        2.60416424       -3.02908258
 C           -0.13869956        3.24687698       -3.27819166
 C            1.77229494        0.25694862       -3.55168580
 C            1.26941938        1.53934912       -3.99464478
 C            0.93355043       -2.02160405       -3.64704967
 C           -0.34812866       -2.64368215       -3.36353800
 C           -1.49058633       -1.78265021       -3.10791507
 C            0.92456962       -0.74245473       -4.17135474
 C           -2.07010040        0.52812884       -2.75608855
 C           -2.00922555        1.86821477       -3.14708330
 C           -0.94787590        2.30472554       -4.02976817
 C           -0.05119425        1.30883074       -4.57011609
 C           -1.41740048       -0.45244245       -3.51534860
 C           -0.35776993       -0.08995925       -4.35207609
