   70
C70 / DATE: 7/ 1/2024 / Origin: Program Fullerene / C70 from database
 C            0.99782310       -0.01990168        4.87157333
 C            2.31998083       -0.30490869        4.36437823
 C            2.30571794       -1.67680255        3.88120836
 C            0.19416233       -1.21704979        4.67389727
 C            0.91385523       -2.05472279        3.73531716
 C           -1.13924427       -0.78443851        4.32930352
 C            0.25674695        1.08409600        4.29586543
 C           -1.12800281        0.67003427        4.25467317
 C            0.76309425        1.77039287        3.19513432
 C            2.84248290        0.51421466        3.28871672
 C            2.03012390        1.46500687        2.67667947
 C            3.15732418       -1.72620987        2.71701966
 C            3.61031353       -0.36937056        2.43895155
 C            2.60738296       -2.24056827        1.48288023
 C            0.38738430       -2.27292409        2.45510773
 C            1.24966345       -2.56086478        1.38697538
 C           -1.72199304       -1.26116141        3.09455073
 C           -0.97498849       -2.04458385        2.20934234
 C           -1.92459540        1.05363559        3.10060037
 C           -2.48964204       -0.16019003        2.54937421
 C           -0.12718067        2.49036933        2.39879996
 C           -1.42649819        1.99819123        2.21165319
 C            0.41200421        3.34904998        1.45040015
 C            2.34539235        1.87520616        1.37884257
 C            1.69269826        2.98889853        0.86934010
 C            3.54166371       -0.17518103        0.99868439
 C            3.19688033       -1.45577149        0.41889097
 C            2.91846366        0.96024066        0.48978995
 C            2.54452668       -1.46907793       -0.79794058
 C            0.72744853       -2.72133040        0.10122295
 C            1.56562085       -2.43239703       -0.97623784
 C           -1.47521916       -2.18802544        0.91267214
 C           -0.65529534       -2.70351950       -0.09306642
 C           -2.77063337       -0.20544026        1.19554300
 C           -2.58620696       -1.42129015        0.55692492
 C           -2.01609365        2.07552340        0.94683688
 C           -2.67931679        0.95899051        0.42772058
 C           -0.43915507        3.84021304        0.38506431
 C           -1.65892033        3.11483829        0.09911767
 C            1.58586200        3.15032659       -0.56844614
 C            0.35258804        3.87045858       -0.82974071
 C            2.49534834        0.94071525       -0.84418663
 C            2.43055206       -0.28529061       -1.52510960
 C            1.93624260        2.09248581       -1.40330599
 C            1.85602633       -0.36222542       -2.79797785
 C            1.10573795       -2.63205982       -2.26262255
 C            1.40030837       -1.60429114       -3.24593322
 C           -1.16642732       -2.84162858       -1.39105452
 C           -0.27466068       -3.01970683       -2.45000786
 C           -3.12798932       -1.55875234       -0.70556440
 C           -2.48312795       -2.45180155       -1.64138024
 C           -2.92385663        0.86151090       -0.94816486
 C           -3.44534086       -0.33978392       -1.42729746
 C           -1.72907374        2.91597022       -1.33769832
 C           -0.49022144        3.41706689       -1.91685726
 C           -2.28454105        1.73903371       -1.83447862
 C            1.38635228        2.04352295       -2.68164765
 C            1.40551587        0.79602861       -3.42381314
 C            0.10135790        2.68737130       -2.93347157
 C           -1.91745994        1.30612833       -3.11642635
 C            0.19524689        0.76238029       -4.23586397
 C           -0.71235292        1.73891433       -3.66394147
 C            0.36583228       -1.67405247       -4.26351343
 C           -0.63491178       -2.62616299       -3.80428451
 C           -0.31754132       -0.45693766       -4.65658971
 C           -2.89241827       -2.01372130       -2.96688941
 C           -3.36595108       -0.64294619       -2.84094286
 C           -2.53201294        0.19110001       -3.67705359
 C           -1.93962165       -2.05467526       -4.05431725
 C           -1.74723084       -0.69214902       -4.52722693
