   70
C70 / DATE: 7/ 1/2024 / Origin: Program Fullerene / C70 from database
 C            1.56521152        0.01691377        4.63114777
 C            0.77687944       -1.16734866        4.35781646
 C            1.37588102       -1.86763133        3.23427669
 C            2.66491611        0.04034810        3.68498388
 C            2.53631094       -1.10329089        2.80857066
 C            2.68431386        1.35063324        3.07535739
 C            0.72365618        1.16990477        4.35363472
 C            1.43638286        2.01343686        3.42925535
 C           -0.60140260       -0.74457792        4.23186269
 C           -0.57935543        0.68530211        3.96109149
 C           -1.43522498       -1.52805781        3.45927090
 C            0.52896288       -2.40925399        2.26787780
 C           -0.83300511       -2.50207782        2.55664619
 C            0.93761696       -2.42825103        0.93227473
 C            2.74171331       -0.91008900        1.45076311
 C            2.10559703       -1.75923922        0.54923058
 C            3.11674834        1.46737163        1.75772088
 C            3.27339943        0.30108773        0.99469350
 C            2.78659015        2.65438772        1.10824138
 C            0.73906056        2.65041440        2.41153048
 C            1.53690564        3.29668097        1.47793839
 C           -1.16483619        1.16232129        2.78370579
 C           -0.51519974        2.14140017        2.01094579
 C           -2.45685283       -0.86374134        2.68472887
 C           -2.22335187        0.43549873        2.23229838
 C           -1.78348164       -2.71433523        1.47297544
 C           -2.92622301       -1.85699779        1.74383186
 C            0.06157955       -2.90201686       -0.04513900
 C           -1.31311756       -2.82541194        0.16684515
 C            0.53526569       -3.11312490       -1.32993074
 C            2.49390172       -1.74371984       -0.78945711
 C            1.82130871       -2.55059136       -1.70222245
 C            3.60321726        0.41028485       -0.35324562
 C            3.25292724       -0.67291699       -1.26080433
 C            2.94084340        2.76756998       -0.33073579
 C            3.35688350        1.66133800       -1.05338170
 C            0.93858244        3.83762972        0.28604111
 C            1.82807277        3.55357919       -0.83057888
 C           -1.06555642        2.50696317        0.76887616
 C           -0.38338694        3.38589939       -0.07322497
 C           -2.78968318        0.83149837        1.02093843
 C           -2.11437372        1.76021020        0.22379454
 C           -3.68466561       -1.42088530        0.67825445
 C           -3.76809742        0.01109351        0.45533455
 C           -2.16764554       -2.51683155       -0.89966151
 C           -3.43865711       -2.00863151       -0.62152193
 C           -0.37443812       -2.94685016       -2.44961479
 C           -1.67194400       -2.50076805       -2.21132354
 C            1.73509466       -2.12324480       -3.08699826
 C            0.37738285       -2.35630913       -3.54521332
 C            2.93043985       -0.07388304       -2.54901463
 C            2.69108274        1.33616713       -2.30581269
 C            2.08779507       -0.75435362       -3.41244419
 C            1.01882825        3.02222377       -1.91277551
 C           -0.36726001        3.11489659       -1.49839333
 C            1.43783937        1.88142727       -2.59217104
 C           -2.30547785        1.77853774       -1.16577083
 C           -1.26267930        2.18502110       -1.98978046
 C           -4.14293310        0.18939066       -0.93313699
 C           -4.07964065       -1.12054609       -1.56752770
 C           -3.36801508        1.09879195       -1.74345180
 C           -2.27989301       -1.70144488       -3.18454129
 C           -3.47978991       -0.95244215       -2.87025035
 C           -3.15346246        0.45690459       -3.02816516
 C           -0.11083986       -1.12428516       -4.13794778
 C            0.87574004       -0.09087671       -3.86250097
 C            0.48332754        1.10253597       -3.25220684
 C           -0.87587754        1.36519838       -3.04977314
 C           -1.45440260       -0.82140752       -3.99381752
 C           -1.82948851        0.53257056       -3.63021942
