   70
C70 / DATE: 7/ 1/2024 / Origin: Program Fullerene / C70 from database
 C            1.60627001       -0.03503268        4.58938590
 C            0.79465523       -1.21682994        4.36993100
 C            1.34888151       -1.94823658        3.24350502
 C            2.65958777       -0.03123722        3.59049360
 C            2.52315277       -1.22229779        2.78658249
 C            2.62225635        1.24193726        2.91065212
 C            0.76344731        1.12268661        4.34409093
 C            1.42231780        1.94190454        3.35202994
 C           -0.58556642       -0.78766508        4.28787147
 C           -0.57347635        0.64909075        4.05601478
 C           -1.44853589       -1.55725990        3.53038417
 C            0.46992341       -2.48364564        2.29657657
 C           -0.88499937       -2.54124809        2.61300981
 C            0.87018708       -2.54878248        0.95540942
 C            2.73235465       -1.12802634        1.42200000
 C            2.14860363       -2.09724332        0.62380144
 C            2.94435616        1.29113537        1.55644088
 C            3.09529420        0.09544608        0.83823400
 C            2.55648983        2.43161678        0.87083519
 C            0.65493155        2.58710639        2.38922629
 C            1.34422460        3.10875806        1.29899908
 C           -1.24329747        1.16332012        2.94495504
 C           -0.69938402        2.24889524        2.24476069
 C           -2.49911657       -0.88497110        2.79740082
 C           -2.30525820        0.43428215        2.39381472
 C           -1.85971702       -2.74074189        1.55767994
 C           -2.97948076       -1.84957326        1.83456532
 C           -0.07638483       -2.74681041       -0.06321765
 C           -1.43083026       -2.90328428        0.24404452
 C            0.32357182       -2.67657634       -1.40163638
 C            2.60294600       -2.21398505       -0.67591244
 C            1.68085850       -2.66425909       -1.69599831
 C            3.28232837        0.13197668       -0.55271242
 C            3.34031473       -1.09342044       -1.22533307
 C            2.58624894        2.43996177       -0.57397390
 C            3.02395667        1.31792712       -1.26360949
 C            0.62463469        3.53958455        0.11492088
 C            1.39302930        3.12672973       -1.04611783
 C           -1.43838578        2.82246481        1.21478236
 C           -0.75275930        3.43548084        0.08847495
 C           -2.97180713        0.90549324        1.25724737
 C           -2.59968852        2.12215557        0.69816281
 C           -3.74052059       -1.39377066        0.77452153
 C           -3.75616270        0.03572978        0.49635488
 C           -2.37736176       -2.79160808       -0.77202022
 C           -3.61552150       -2.08501257       -0.49316277
 C           -0.59681874       -2.29765961       -2.38280100
 C           -1.95466267       -2.41967376       -2.11070061
 C           -0.18986746       -1.49209412       -3.45221838
 C            2.12723038       -2.10264438       -2.95598302
 C            3.19674655       -1.15730039       -2.66582776
 C            1.15641972       -1.43311353       -3.79648483
 C            2.73679551        1.27993359       -2.62742483
 C            2.92071576        0.06181076       -3.38526342
 C            1.72069486       -0.14898287       -4.17721091
 C            0.75067233        2.64607372       -2.18619173
 C            1.52199877        1.92725314       -3.10053242
 C            0.88934160        1.03870673       -4.06061353
 C           -1.40416692        2.99295134       -1.13010666
 C           -2.60966888        2.27348092       -0.75009961
 C           -0.64702648        2.53865034       -2.20776281
 C           -3.81174445        0.20820143       -0.94870109
 C           -3.82158715       -1.11359565       -1.54960636
 C           -2.87277367       -1.40243069       -2.60359133
 C           -3.06533248        1.22389774       -1.54375417
 C           -1.02486341       -0.46460189       -3.88562391
 C           -0.48526295        0.87737743       -4.01998510
 C           -1.27402298        1.74042552       -3.16012752
 C           -2.35681210       -0.34105275       -3.32685479
 C           -2.48257355        1.01222175       -2.79599968
