   70
C70 / DATE: 7/ 1/2024 / Origin: Program Fullerene / C70 from database
 C            1.18769785        0.06514956        4.38075523
 C            2.45564488       -0.18936873        3.73840395
 C            2.41615347       -1.55174877        3.23116730
 C            0.35919091       -1.11837253        4.20421666
 C            1.04190627       -1.99221266        3.27564517
 C           -0.97613253       -0.67235429        3.86400325
 C            0.40962266        1.20409778        3.94251004
 C           -0.97818783        0.78356029        3.87249037
 C            0.89675591        2.04778506        2.94979488
 C            2.86275171        0.66659187        2.63906089
 C            2.00245966        1.65520880        2.17418530
 C            3.08120195       -1.55160100        1.95250247
 C            3.51697748       -0.19216548        1.67555783
 C            2.53010323       -2.27208629        0.89989205
 C            0.40105704       -2.32384582        2.08506452
 C            1.14855568       -2.53311600        0.91246042
 C           -1.67299662       -1.32436201        2.85578839
 C           -0.99062315       -2.21300622        2.01217523
 C           -2.82899636       -0.70351285        2.40088343
 C           -1.84653626        1.46314566        3.01548316
 C           -2.89090034        0.75002403        2.42328824
 C            0.00556337        2.98566111        2.44789042
 C           -1.41280274        2.65380557        2.42392833
 C            0.32499572        3.68426786        1.22311339
 C            2.12820632        2.07628326        0.84415377
 C            1.37973663        3.15546489        0.38679466
 C            3.57588653        0.18801543        0.34086341
 C            2.79082856        1.26993994       -0.09168554
 C            3.17332133       -2.11422473       -0.32181122
 C            3.83922995       -0.84202045       -0.55415729
 C            2.48055261       -2.45437505       -1.54501890
 C            0.47832727       -2.81272531       -0.28795387
 C            1.09519434       -2.55698464       -1.51269042
 C           -1.64816304       -2.77537039        0.92458136
 C           -0.88046847       -3.09654825       -0.26404976
 C           -3.47817937       -1.16808104        1.18896064
 C           -2.93181333       -2.24196504        0.50079245
 C           -3.41307919        1.17748224        1.13655453
 C           -3.93980201        0.00365981        0.45948816
 C           -1.93049063        3.04137587        1.11957842
 C           -0.88578918        3.75902494        0.42149840
 C           -2.72228514        2.14495035        0.41496518
 C            0.88355815        3.13240402       -0.97576755
 C           -0.55071392        3.34930231       -0.92505479
 C            2.49426591        1.42714343       -1.45675183
 C            1.37235660        2.16436062       -1.83912065
 C            3.79541373       -0.57321181       -1.97047924
 C            3.12739102       -1.70026832       -2.60016661
 C            3.12222010        0.62698784       -2.40703028
 C            2.31468383       -1.17453926       -3.66944371
 C            2.39783046        0.27963038       -3.61479037
 C            0.32305672       -2.19738975       -2.63067045
 C            0.90686071       -1.51100383       -3.69844962
 C           -1.68659236       -2.76772959       -1.42515442
 C           -2.96885248       -2.26157723       -0.95164723
 C           -1.07210272       -2.19332022       -2.53562401
 C           -3.96682528       -0.01435140       -0.92684224
 C           -3.59910543       -1.22986479       -1.63654545
 C           -2.54415906        1.98312275       -0.96425788
 C           -1.37755779        2.45113211       -1.58923029
 C           -3.38325589        1.10397569       -1.64602836
 C            0.53362778        1.67307110       -2.84296756
 C            1.04901896        0.78992980       -3.78909065
 C            0.23496557       -0.33608694       -4.21052732
 C           -0.85300468        1.76970467       -2.68956186
 C           -1.80757331       -1.35444027       -3.37650104
 C           -3.08948314       -0.83563083       -2.93449761
 C           -2.99566276        0.61833958       -2.95481683
 C           -1.13370801       -0.25340461       -4.04059803
 C           -1.68132789        0.95826780       -3.45950902
