   70
C70 / DATE: 7/ 1/2024 / Origin: Program Fullerene / C70 from database
 C            1.04767259        0.02370454        4.74056758
 C            2.26365550       -0.31322716        4.03479178
 C            2.18763409       -1.71801185        3.67736766
 C            0.21130464       -1.16751206        4.78179336
 C            0.82307537       -2.15622051        3.91726260
 C           -1.14904553       -0.76094052        4.51415268
 C            0.23163532        1.10791724        4.23458717
 C           -1.14996875        0.67703304        4.30467324
 C            0.62885121        1.81961079        3.10658557
 C            2.59472528        0.42232448        2.83062764
 C            1.81931095        1.50394804        2.43344938
 C            2.73505072       -1.86503250        2.34080644
 C            2.99748943       -0.53184150        1.81657305
 C            2.15753389       -2.80211685        1.50242639
 C            0.10382007       -2.71079924        2.85577612
 C            0.83342234       -3.31231307        1.82868590
 C           -1.84252547       -1.35915416        3.39382981
 C           -1.25134948       -2.38655802        2.66042848
 C           -2.01341313        0.96391027        3.16919910
 C           -2.53091260       -0.29717552        2.67471846
 C           -0.35445277        2.51399170        2.40781932
 C           -1.60274521        1.90679405        2.24064420
 C            0.06721457        3.42588063        1.45351199
 C            1.98335320        1.97154205        1.13054957
 C            1.32401439        3.14213010        0.78643679
 C            2.70664703       -0.24376133        0.48123314
 C            2.34897186        1.06439313        0.12679715
 C            2.18072750       -2.56460809        0.07438988
 C            2.46028854       -1.28957879       -0.41330772
 C            0.18700952       -3.68065418        0.58278752
 C            1.07452571       -3.30305371       -0.50534760
 C           -1.88655460       -2.74388718        1.47331992
 C           -1.17112578       -3.47417968        0.44357250
 C           -2.75432022       -0.46003075        1.30694696
 C           -2.73003547       -1.75648245        0.81414756
 C           -2.16205603        1.85413249        0.96551495
 C           -2.52455512        0.61298188        0.43174951
 C           -0.88170883        3.84345382        0.44170321
 C           -1.96940891        2.93987531        0.12551448
 C            1.18251584        3.50156655       -0.60738771
 C           -0.13816363        4.08258525       -0.77618391
 C            2.11902323        1.36865507       -1.22211552
 C            1.64297163        2.63748202       -1.59199115
 C            2.07916402       -0.98934659       -1.71822059
 C            2.15943454        0.32966206       -2.16009826
 C            0.54412222       -2.84017348       -1.70298605
 C            1.29621248       -1.91153086       -2.42157624
 C           -1.68940178       -3.04436118       -0.84174219
 C           -2.64817203       -1.97731372       -0.61000604
 C           -0.83607394       -2.92093693       -1.93150889
 C           -2.45986606        0.39609103       -0.95923939
 C           -2.64504577       -0.89365583       -1.47860559
 C           -1.97175426        2.74028839       -1.31052594
 C           -0.94880800        3.60872492       -1.87930185
 C           -2.13445145        1.45502531       -1.82299701
 C            1.12990190        2.82887975       -2.87271813
 C           -0.28041042        3.16977280       -3.00805788
 C            1.99379970        0.59800089       -3.51558178
 C            1.44049417        1.87170708       -3.91135233
 C            0.93496099       -1.64760478       -3.73575556
 C            1.36878456       -0.40878779       -4.35275996
 C           -1.35728281       -2.26231976       -3.04067317
 C           -2.27968909       -1.16017474       -2.79558376
 C           -0.45115552       -1.85125591       -4.09415874
 C           -1.72124633        1.19586901       -3.13457027
 C           -0.87104491        2.09816931       -3.77805249
 C            0.20060125        1.59973155       -4.62106386
 C            0.20576735        0.19999276       -4.98497226
 C           -1.90968468       -0.07103509       -3.67438784
 C           -0.94925904       -0.60019153       -4.63211139
