   70
C70 / DATE: 7/ 1/2024 / Origin: Program Fullerene / C70 from database
 C            1.26286669       -0.02360353        5.04401382
 C            2.50453653        0.00408370        4.28937168
 C            2.61280788       -1.26266099        3.59545091
 C            0.48659084       -1.16194091        4.57749207
 C            1.33347909       -1.93945103        3.69769004
 C           -0.76874307       -0.66277590        4.05172265
 C            0.39803269        1.13592340        5.00827483
 C           -0.89331701        0.71212151        4.48069952
 C            0.82153451        2.29835618        4.25084723
 C            2.73453817        1.05928686        3.31136717
 C            1.93150418        2.18803766        3.30995436
 C            3.12690116       -1.00036076        2.26128402
 C            3.08321799        0.43569436        2.04445596
 C            2.69092644       -1.81411487        1.22814569
 C            0.79830849       -2.44362293        2.52198121
 C            1.69430540       -2.75119870        1.50999678
 C           -1.12299209       -0.99960841        2.74827947
 C           -0.50437449       -2.09541579        2.14685517
 C           -1.81727591       -0.08214023        1.94950466
 C           -1.31951236        1.69651827        3.51012462
 C           -0.33310305        2.75749890        3.50739983
 C           -1.80902782        1.27716865        2.27646367
 C            1.49705365        2.74560192        2.04104326
 C            0.13710838        3.21714575        2.22058502
 C            2.55052344        0.92012532        0.84302468
 C            1.82332123        2.11687165        0.82963336
 C            2.75892710       -1.30329168       -0.06264695
 C            2.48673592        0.05640296       -0.25755543
 C            2.58214663       -2.19887695       -1.10532900
 C            1.21726900       -3.53305828        0.47206313
 C            1.88155765       -3.43341091       -0.81090965
 C           -0.97242305       -2.53835749        0.90990940
 C           -0.21151718       -3.48669864        0.22108531
 C           -2.17759229       -0.45587325        0.64911459
 C           -1.88774185       -1.75066355        0.20759681
 C           -2.61083319        0.52108838       -0.26605398
 C           -1.78668049        2.19590396        1.23491102
 C           -0.70069800        3.07141114        1.13687847
 C           -2.44842278        1.87723428        0.05403009
 C            1.06685739        2.45109823       -0.30436903
 C           -0.10789967        3.18239333       -0.10431752
 C            1.90593281        0.49185026       -1.45590109
 C            1.21731196        1.71269418       -1.48601648
 C            2.10879451       -1.71915025       -2.38378897
 C            1.88911132       -0.36027906       -2.56980363
 C            0.88413355       -3.64568152       -1.84201345
 C           -0.41568564       -3.69440007       -1.20316679
 C            1.10960131       -2.65724428       -2.87645727
 C           -2.30974802       -2.15794927       -1.05234786
 C           -1.47627522       -3.06208462       -1.82788677
 C           -2.99149098        0.14530301       -1.56793250
 C           -2.86168466       -1.18069970       -1.96950999
 C           -3.19563815        1.11402879       -2.55219235
 C           -2.30061706        2.79480828       -0.97886079
 C           -0.97998754        3.36199535       -1.15732409
 C           -2.81758786        2.48019527       -2.28641423
 C            0.47822316        2.07800182       -2.61989811
 C           -0.55512113        3.00180511       -2.48553929
 C           -1.78347900        2.83671940       -3.24496964
 C            1.17759471        0.00425342       -3.70651062
 C            0.56205635        1.30916709       -3.77665634
 C            0.02330644       -2.14284194       -3.57320713
 C           -1.27166351       -2.44998297       -3.13427149
 C           -2.34727321       -1.48452169       -3.30087170
 C            0.23818988       -0.95801840       -4.26778616
 C           -2.78522029        0.83487398       -3.91919522
 C           -1.82346493        1.85819363       -4.30748510
 C           -0.59071496        1.18913234       -4.66121257
 C           -2.20455879       -0.45893050       -4.22435003
 C           -0.89294119       -0.22407928       -4.79849926
