   70
C70 / DATE: 7/ 1/2024 / Origin: Program Fullerene / C70 from database
 C            1.58476465        0.00775072        4.47010151
 C            0.77230421       -1.18175169        4.28617621
 C            1.39074501       -1.99714223        3.25391196
 C            2.65977441       -0.03837987        3.49813231
 C            2.61573353       -1.33128632        2.84546165
 C            2.57368832        1.14431703        2.66026931
 C            0.75896666        1.15583912        4.15139700
 C            1.39885946        1.88922411        3.07085636
 C           -0.60159759       -0.75783096        4.10110658
 C           -0.60142832        0.68876474        3.94599835
 C           -1.40918385       -1.51359407        3.26878577
 C            0.58284614       -2.58291505        2.27591174
 C           -0.80125684       -2.54378348        2.43618138
 C            1.12385347       -2.84156408        1.00956648
 C            2.96549088       -1.39266471        1.50872503
 C            2.43392259       -2.42314629        0.74648807
 C            2.83255567        0.99702258        1.30176218
 C            3.35110462       -0.21866969        0.85990442
 C            2.19128494        1.83515636        0.38251276
 C            0.58560356        2.43746637        2.08978788
 C            1.08216019        2.59230864        0.79415486
 C           -1.33450155        1.26807058        2.91374932
 C           -0.79255006        2.38096766        2.27418700
 C           -2.40986920       -0.84102936        2.45984729
 C           -2.32789179        0.53063505        2.25900637
 C           -1.65905201       -2.72306248        1.28264572
 C           -2.68877010       -1.69263407        1.32467580
 C            0.28365114       -3.23547916       -0.04477698
 C           -1.09961472       -3.06382894        0.05911092
 C            0.82781656       -3.52580130       -1.29487563
 C            3.02140879       -2.67852393       -0.48455918
 C            2.24111906       -3.30879770       -1.52538918
 C            3.79168278       -0.30808509       -0.45177047
 C            3.79354385       -1.61315169       -1.09644428
 C            2.50871083        1.72470608       -0.97836921
 C            3.29848469        0.66066196       -1.41306378
 C            1.69124372        2.33309776       -1.92393988
 C            0.29044721        3.26344760       -0.14339750
 C            0.60935122        3.19277761       -1.49446797
 C           -1.59814250        3.09286890        1.40498960
 C           -0.98437446        3.68530735        0.23202750
 C           -2.96365958        1.09186954        1.14863453
 C           -2.82670830        2.46748100        0.96466020
 C           -3.10881847       -1.11362743        0.13333100
 C           -3.35064340        0.26431673        0.07769824
 C           -1.85378190       -2.83207984       -1.08961818
 C           -2.90306061       -1.82424835       -1.04862654
 C            0.13658671       -3.06764949       -2.48592085
 C           -1.19741099       -2.72517995       -2.38266970
 C            2.37113780       -2.50052832       -2.73086692
 C            3.31548362       -1.44323133       -2.45755859
 C            2.87434891       -0.07242204       -2.59550243
 C            1.03181946       -2.14254223       -3.15456759
 C            1.20900111        1.53656157       -3.04465591
 C            1.62491296        0.21597192       -3.13894028
 C            0.66061227       -0.79783746       -3.26300013
 C           -0.45027050        3.07529101       -2.48689889
 C           -0.18227326        1.87124848       -3.25784043
 C           -2.02711442        3.81375363       -0.77386457
 C           -3.19303502        3.08737525       -0.29166356
 C           -1.75633878        3.37739910       -2.13058768
 C           -3.74781183        0.81729275       -1.14240289
 C           -3.67194465        2.24801942       -1.36197381
 C           -2.81708162        2.46575145       -2.52050999
 C           -2.88457154       -1.12580491       -2.32404768
 C           -1.63889845       -1.47785791       -2.97708809
 C           -0.70499152       -0.47846296       -3.25410820
 C           -1.12700488        0.85326342       -3.30128888
 C           -3.30479321        0.18954233       -2.37173945
 C           -2.46657512        1.15906655       -3.05475997
