   70
C70 / DATE: 7/ 1/2024 / Origin: Program Fullerene / C70 from database
 C            1.15399263        0.00931740        5.02831861
 C            2.48779501       -0.35908900        4.60890082
 C            2.39361318       -1.66930306        3.97059733
 C            0.33132027       -1.17927762        4.90145866
 C            0.99773735       -2.04352349        3.94524511
 C           -1.00817931       -0.72673359        4.59554457
 C            0.46375066        1.06639108        4.30763109
 C           -0.93543359        0.70354083        4.32657715
 C            1.02180602        1.57917054        3.13267625
 C            3.17529752        0.52139070        3.68798532
 C            2.40275119        1.50986225        2.95151199
 C            3.11199838       -1.59788573        2.71957016
 C            3.81271079       -0.32651913        2.70383654
 C            2.49947075       -2.02140799        1.54215274
 C            0.37662317       -2.30116196        2.72225135
 C            1.13252615       -2.33906178        1.53420088
 C           -1.69294821       -1.32528512        3.46843064
 C           -1.02013543       -2.23425823        2.65636572
 C           -1.72880146        0.95766661        3.14531922
 C           -2.43825921       -0.26217056        2.82242398
 C            0.20180645        1.89277917        2.03777603
 C           -1.17955544        1.67095496        2.09496062
 C            0.78319802        2.24415789        0.80879346
 C            2.94574660        1.55041365        1.60504992
 C            3.83955971        0.40820322        1.45635534
 C            2.10747113        1.88762716        0.54512027
 C            3.10176217       -1.63352729        0.35088017
 C            3.74895252       -0.32809835        0.28912000
 C            2.40789161       -1.83686081       -0.90648835
 C            0.49198282       -2.62214768        0.31749773
 C            1.09497063       -2.29151253       -0.90267019
 C           -1.65413098       -2.59959540        1.47953960
 C           -0.84939676       -2.96837346        0.33371361
 C           -2.83411306       -0.45877795        1.50288603
 C           -2.72412846       -1.74322039        0.98963366
 C           -1.89085730        1.68115632        0.90814535
 C           -2.74113183        0.60933886        0.60831486
 C           -0.03792701        2.60658371       -0.26547012
 C           -1.42117470        2.47272677       -0.12284009
 C            0.51935397        2.63379254       -1.54728198
 C            2.45231233        1.47308415       -0.74313309
 C            3.23235183        0.32932813       -0.88952053
 C            2.74860760       -0.71744049       -1.76189191
 C            1.62888049        1.83228969       -1.80749017
 C            1.84855361       -0.35526040       -2.74321784
 C            1.61254738        1.00156376       -2.93027833
 C            0.31182847       -2.06758622       -2.04838159
 C            0.83122414       -1.24516473       -3.06371513
 C           -1.65752727       -2.73123922       -0.84461978
 C           -2.80374855       -1.93005124       -0.44275600
 C           -1.04606940       -2.42220041       -2.05083353
 C           -3.16053145        0.43002954       -0.71516912
 C           -3.17366454       -0.86391384       -1.25735451
 C           -2.24831596        2.63750324       -1.22290734
 C           -3.14049340        1.54215110       -1.55932411
 C           -0.25015708        3.08256328       -2.61841874
 C           -1.68571812        3.15885783       -2.44878646
 C            0.88501762        1.38644568       -4.04868752
 C            0.00258847        2.53179352       -3.93909704
 C            0.08580455       -0.97565863       -4.20825926
 C            0.18546554        0.35348593       -4.79585886
 C           -1.88160378       -1.91209063       -3.03940009
 C           -2.97102332       -1.04225427       -2.62370703
 C           -1.30468032       -1.36159673       -4.24271795
 C           -3.10487362        1.37095703       -3.00147065
 C           -2.31145445        2.45865673       -3.55754177
 C           -1.27631463        2.17284014       -4.53355444
 C           -1.16094251        0.82940148       -5.06861684
 C           -3.00902014        0.09015623       -3.52823554
 C           -2.08695943       -0.19393320       -4.61908893
