   70
C70 / DATE: 7/ 1/2024 / Origin: Program Fullerene / C70 from database
 C            1.25500831        0.05372214        4.33914610
 C            2.53392819       -0.15923454        3.70116069
 C            2.57075153       -1.53670965        3.25022009
 C            0.43989052       -1.13080645        4.11633632
 C            1.22449547       -2.07502084        3.35267328
 C           -0.82967453       -0.69855315        3.57848752
 C            0.47501119        1.20203403        3.93105090
 C           -0.87163706        0.75133186        3.62513008
 C            1.03956019        2.15849371        3.09818121
 C            2.89089456        0.68208069        2.57352064
 C            2.11648292        1.79598660        2.27080094
 C            3.21766149       -1.55929576        1.95240307
 C            3.30408666       -0.18380499        1.48199175
 C            2.81736576       -2.53217971        1.05591009
 C            0.66951803       -2.68038222        2.22708918
 C            1.55010719       -3.21116684        1.29270192
 C           -1.34359484       -1.32779700        2.46002703
 C           -0.63403644       -2.35619121        1.82260379
 C           -2.34889035       -0.67444422        1.76804381
 C           -1.59522243        1.44743082        2.65116377
 C           -2.32200680        0.72447621        1.69065340
 C            0.17315793        3.14840682        2.65378841
 C           -1.20216602        2.75907467        2.36768578
 C            0.61294341        4.03589954        1.59731940
 C            2.17862279        2.29666241        0.97120864
 C            1.67436497        3.56844404        0.73493853
 C            2.90542581        0.13179716        0.17845579
 C            2.41818426        1.41407465       -0.09358130
 C            2.84832317       -2.21985584       -0.35520829
 C            2.73129819       -0.89120150       -0.76103715
 C            1.04957595       -3.64401836        0.00416468
 C            2.02642456       -3.22625862       -0.99284398
 C           -1.15820086       -2.90848195        0.64264134
 C           -0.30717727       -3.52786733       -0.28251909
 C           -3.08864271       -1.41113882        0.85943410
 C           -2.46665892       -2.58383295        0.27114300
 C           -3.81618310       -0.71478893       -0.17748282
 C           -2.73628050        1.36389389        0.51360152
 C           -3.49486528        0.67491380       -0.42088882
 C           -1.56313461        3.35253567        1.09329595
 C           -0.53630304        4.31735514        0.75654600
 C           -2.09857178        2.53044741        0.10994738
 C            1.33192238        3.96091690       -0.61229920
 C           -0.06577518        4.37657152       -0.60685282
 C            1.99332947        1.72613173       -1.39076244
 C            1.48685622        2.99360502       -1.67760419
 C            2.14750229       -0.60936202       -1.99960590
 C            1.76909000        0.69842943       -2.30881327
 C            1.59710433       -2.99840550       -2.28675964
 C            1.74974134       -1.66074132       -2.83487991
 C           -0.70688238       -3.67300014       -1.61066982
 C            0.27813409       -3.47409094       -2.65999258
 C           -2.86415144       -2.63871300       -1.12700931
 C           -3.63407197       -1.44415067       -1.41868613
 C           -1.94771593       -3.07632040       -2.06611323
 C           -3.14806709        0.81794358       -1.82190435
 C           -3.13042264       -0.51332208       -2.41300747
 C           -1.76413531        2.70330228       -1.24349786
 C           -0.74337397        3.58154898       -1.61035648
 C            0.29317613        3.09763533       -2.49564744
 C           -2.16582499        1.73871485       -2.17484300
 C            0.91588243        0.93009473       -3.38905573
 C           -0.01079519        2.04226849       -3.33237249
 C           -1.34363649        1.46104739       -3.26798666
 C            0.67137338       -1.45663172       -3.78899397
 C           -0.27772461       -2.53919294       -3.62250712
 C           -1.63237481       -2.22305175       -3.20528533
 C           -2.06031134       -0.89411677       -3.21849263
 C            0.18469356       -0.17565094       -3.97139421
 C           -1.23337882        0.09250959       -3.75451146
