   70
C70 / DATE: 7/ 1/2024 / Origin: Program Fullerene / C70 from database
 C            1.51804854       -0.07178527        4.74753423
 C            0.73305922       -1.26293569        4.49604487
 C            1.36346052       -2.00884421        3.41819112
 C            2.66808836       -0.11470035        3.86783053
 C            2.54392503       -1.27630857        3.00104871
 C            2.76818647        1.18400241        3.23878821
 C            0.71269701        1.07171955        4.34921972
 C            1.45159470        1.79722735        3.33705100
 C           -0.64164456       -0.84297568        4.31543401
 C           -0.60785839        0.58198484        4.01893738
 C           -1.45426552       -1.64967120        3.53406738
 C            0.54635178       -2.57482237        2.45014728
 C           -0.82053080       -2.66938416        2.71397546
 C            0.98652848       -2.61561802        1.12691833
 C            2.81099017       -1.11245385        1.64182655
 C            1.98167789       -1.72941746        0.69450470
 C            3.40385865        1.23929195        2.01454688
 C            3.56272352       -0.00292710        1.26844812
 C            2.92901850        2.20535668        1.05108458
 C            0.80276801        2.18810945        2.16382508
 C            1.57984863        2.55491978        1.06254944
 C           -1.23196907        1.03367076        2.86054884
 C           -0.55374261        1.89376626        1.97922633
 C           -2.45824464       -1.02103404        2.69508808
 C           -2.35417186        0.33779494        2.41263635
 C           -1.73714698       -2.98244286        1.63264086
 C           -2.75504847       -1.94334161        1.60906064
 C            0.21107010       -3.29162706        0.19334212
 C           -1.21723757       -3.43597874        0.43455898
 C            0.39354053       -3.02176126       -1.21862199
 C            2.08027776       -1.38421500       -0.66813605
 C            1.24240794       -1.99507550       -1.61389173
 C            3.65396137        0.35929729       -0.13030029
 C            3.53330282        1.81008664       -0.19962246
 C            3.00195280       -0.41444468       -1.08340981
 C            3.03913492        2.37075772       -1.36127892
 C            0.96200290        2.88973061       -0.14481204
 C            1.74863237        3.03775929       -1.29344594
 C           -1.18702002        2.30657836        0.80468546
 C           -0.42691498        2.79618989       -0.26215057
 C           -3.07016652        0.83936334        1.33768863
 C           -2.52149179        1.95979148        0.60299734
 C           -3.18848935       -1.42318075        0.39104617
 C           -3.60989474       -0.09425498        0.36215949
 C           -1.90061006       -3.09379601       -0.79585501
 C           -0.90689867       -3.15637336       -1.85342007
 C           -2.85224037       -2.07200655       -0.80282867
 C           -1.14911850       -2.48126497       -3.03772552
 C            1.08391818       -1.43754430       -2.88739144
 C           -0.11692672       -1.61208912       -3.57413809
 C            2.91708103        0.10202330       -2.37232870
 C            3.02320673        1.54075562       -2.54807027
 C            1.88211401       -0.36903879       -3.26707270
 C            1.14169524        2.93761056       -2.61145485
 C            1.91309256        1.97704523       -3.37424460
 C            1.24624576        0.79202261       -3.87501861
 C           -1.02914079        3.01551968       -1.50224564
 C           -0.23784357        2.90294215       -2.71263918
 C           -3.06526815        1.90111301       -0.74319145
 C           -3.72074988        0.61064896       -0.90193512
 C           -2.32974777        2.43711929       -1.78720277
 C           -3.21651898       -1.50529434       -2.02318900
 C           -2.42532631       -1.80703870       -3.20395135
 C           -3.57882842       -0.09918117       -2.08468667
 C           -0.76390105       -0.44365747       -4.15029353
 C           -0.13851512        0.79225020       -4.01261681
 C           -0.87276660        1.89336726       -3.55281107
 C           -2.23083094        1.72001468       -3.05096409
 C           -2.19066709       -0.56262860       -3.91791446
 C           -2.87472564        0.49928262       -3.20879342
