   70
C70 / DATE: 7/ 1/2024 / Origin: Program Fullerene / C70 from database
 C            1.03399530       -0.14719945        4.54613138
 C            2.27614894       -0.45010608        3.87057418
 C            2.16802392       -1.79206224        3.32222152
 C            0.18347452       -1.32412042        4.45823729
 C            0.80297065       -2.23929217        3.52063528
 C           -1.16511215       -0.87446527        4.19672382
 C            0.25548010        0.98710578        4.08943285
 C           -1.13480977        0.57380391        4.06708354
 C            0.71815296        1.77419612        3.03822765
 C            2.71294134        0.42206575        2.79924586
 C            2.00075899        1.57914019        2.50135197
 C            2.69081928       -1.76196656        1.96561463
 C            3.13966123       -0.40877002        1.69296456
 C            2.00415643       -2.43993470        0.96808011
 C            0.09640641       -2.68686685        2.40701829
 C            0.82850885       -3.11903767        1.30337079
 C           -1.85745343       -1.39682355        3.03668810
 C           -1.25880779       -2.36454107        2.23329216
 C           -1.94328386        0.93422024        2.91178818
 C           -2.51895239       -0.28627957        2.38281136
 C           -0.22328809        2.47866284        2.28856111
 C           -1.45120720        1.87627553        2.01614907
 C            0.23413762        3.47138279        1.43813676
 C            2.32132614        2.24024053        1.31530446
 C            1.62400750        3.41279454        1.04053610
 C            2.99654576        0.10742476        0.40962047
 C            2.87271704        1.48862457        0.26363742
 C            2.21322300       -2.05208895       -0.35504489
 C            2.57164614       -0.72839217       -0.63119336
 C            1.69204469       -2.84537398       -1.37202656
 C            0.15834727       -3.82754328        0.31750805
 C            0.73224794       -3.87027274       -1.01292656
 C           -1.84911904       -2.62429980        0.99389760
 C           -1.26529818       -3.59198768        0.17947170
 C           -2.73836617       -0.38422380        1.01713611
 C           -2.67053255       -1.64274520        0.42583421
 C           -1.93285505        1.87846091        0.70463660
 C           -2.60863221        0.75099487        0.21249488
 C           -0.53587399        3.78208429        0.24922965
 C           -1.53338144        2.90097968       -0.16020588
 C            1.74137007        4.04749047       -0.25608891
 C            0.39358071        4.31239367       -0.73533719
 C            2.94198682        2.01095168       -1.02380553
 C            2.45682698        3.34928753       -1.29774514
 C            2.25951943       -0.17548201       -1.87938511
 C            2.55087024        1.15957230       -2.13103234
 C            1.22783228       -2.21078603       -2.59328050
 C            1.35853819       -0.83277433       -2.71493772
 C           -0.35572670       -3.82809226       -1.97238933
 C           -1.59703272       -3.65653214       -1.23396719
 C           -0.00431482       -2.86457022       -3.00254747
 C           -3.12591554       -1.77736293       -0.87864245
 C           -2.56603124       -2.80476168       -1.74150703
 C           -2.95194492        0.66271210       -1.14100863
 C           -3.31849796       -0.57481981       -1.67234703
 C           -1.84981200        2.82846441       -1.51225909
 C           -2.57042166        1.67529193       -2.01779521
 C            0.30444842        3.84517906       -2.10621338
 C            1.59253566        3.27741129       -2.46412843
 C            1.64387860        1.91592239       -2.97465326
 C           -0.84380433        3.17906786       -2.50689734
 C            0.40958986       -0.09228406       -3.43066044
 C           -1.98179896        1.32533337       -3.30582837
 C            0.47085393        1.30332936       -3.40576177
 C           -0.71891816        2.03269244       -3.38844122
 C           -1.01094969       -2.10648366       -3.58062731
 C           -2.36275557       -2.21630987       -3.05492057
 C           -2.94342410       -0.88646774       -3.04026655
 C           -0.76555595       -0.70378857       -3.86979007
 C           -2.02569559        0.00535134       -3.71998592
