   70
C70 / DATE: 7/ 1/2024 / Origin: Program Fullerene / C70 from database
 C            1.42626599       -0.07768472        4.95126152
 C            0.63202507       -1.23323591        4.57014722
 C            1.49466881       -2.11908392        3.82882241
 C            2.64530301       -0.10411461        4.16009314
 C            2.73667609       -1.40630749        3.55015582
 C            2.63883307        1.05914439        3.29730534
 C            0.68274557        1.10937872        4.57242620
 C            1.50953264        1.89389229        3.68141448
 C           -0.57780548       -0.75273016        3.92886279
 C           -0.61059805        0.69081628        4.08150552
 C           -0.99760439       -1.29980522        2.71175590
 C            1.01717947       -2.64625436        2.56766340
 C           -0.25003249       -2.31314725        2.09270852
 C            2.96263984       -1.48739270        2.12009956
 C            2.12315062       -2.56543627        1.64078476
 C            2.94835203        0.93932842        1.94013265
 C            3.05408578       -0.32881623        1.34109204
 C            2.68406893        2.04748911        1.14507063
 C            0.88060075        2.63605497        2.68764492
 C            1.63588265        2.96358895        1.56540460
 C           -1.18181104        1.42585488        3.05666063
 C           -0.51116777        2.55213455        2.56197341
 C           -1.91963963       -0.57236152        1.94834327
 C           -2.10319915        0.78281517        2.23815289
 C           -2.38044559       -1.10042873        0.73554213
 C           -0.52569144       -2.62088902        0.76287634
 C           -1.74690113       -2.24026626        0.22520193
 C            1.82848285       -2.58830405        0.29172331
 C            0.53545707       -2.92489016       -0.09947278
 C            2.88769316       -0.47474665       -0.04584378
 C            2.54914296       -1.74212063       -0.53567880
 C            2.59751160        1.90421742       -0.29265450
 C            2.69928555        0.64683211       -0.86470748
 C            0.97999973        3.47387096        0.37371898
 C            1.55569012        2.79152694       -0.77222964
 C           -1.14057146        3.31504808        1.58017100
 C           -0.38352557        3.71310054        0.40329843
 C           -2.90372004        1.56349960        1.42273909
 C           -2.46261857        2.91367262        1.12966677
 C           -3.26755073       -0.35567556       -0.06094353
 C           -3.43781318        0.99840193        0.20380739
 C           -3.52736790       -0.76202643       -1.36584178
 C           -2.09310369       -2.74738317       -1.01971265
 C           -3.10363248       -2.07204367       -1.79793407
 C            0.29173849       -3.08619281       -1.46601618
 C           -1.02632071       -3.15148454       -1.91918262
 C            2.40951260       -1.93185995       -1.90197266
 C            1.32115937       -2.78135494       -2.35860024
 C            2.21694676        0.47233764       -2.16390450
 C            2.41213499       -0.76854943       -2.75865194
 C            0.73851230        2.34192311       -1.80353195
 C            1.22907848        1.34793793       -2.64628141
 C           -1.17922764        3.38777102       -0.76783137
 C           -2.51772487        3.09531884       -0.31058502
 C           -3.18791106        1.94324114       -0.87479515
 C           -0.63938866        2.58840549       -1.77104661
 C           -3.24335626        0.17796529       -2.43875819
 C           -2.74917568        1.43155886       -2.09120131
 C           -1.49762153        1.83314890       -2.58244018
 C           -2.62439800       -1.96177461       -3.16589201
 C           -1.37203355       -2.69128851       -3.26000556
 C           -2.65880669       -0.55758120       -3.54325310
 C            1.00940085       -2.38003659       -3.71855535
 C            1.70199108       -1.12478077       -3.97193557
 C           -0.37737824       -2.21398642       -4.10380305
 C            0.47565414        1.02698814       -3.77165028
 C           -0.96283804        1.20311809       -3.70478914
 C           -1.57922367       -0.01029892       -4.21986845
 C            0.74526116       -0.18827541       -4.51195382
 C           -0.51645918       -0.88777359       -4.68670231
