   70
C70 / DATE: 7/ 1/2024 / Origin: Program Fullerene / C70 from database
 C            1.33596750       -0.21624998        4.54315250
 C            2.60815001       -0.44485219        3.88474871
 C            2.56158943       -1.75758833        3.26635323
 C            0.48682409       -1.36614009        4.28840942
 C            1.27626207       -2.35868981        3.57948518
 C           -0.74800996       -0.89016019        3.68159390
 C            0.58345025        0.97498253        4.19921213
 C           -0.71295340        0.55855636        3.68479712
 C            1.23773622        2.02354252        3.56781647
 C            3.05304606        0.50568243        2.88079693
 C            2.48722020        1.77113849        2.85209580
 C            2.94428196       -1.61335857        1.86950923
 C            3.21908002       -0.20922778        1.62576143
 C            2.25220093       -2.33821866        0.90510504
 C            0.65115562       -3.10683600        2.59499653
 C            1.32717974       -3.28697239        1.32185576
 C           -1.25039929       -1.55795213        2.57034276
 C           -0.73493001       -2.81289402        2.26992230
 C           -1.91264082       -0.84133654        1.56942422
 C           -1.27015610        1.25531432        2.61795621
 C           -1.98439204        0.56052532        1.63513201
 C            0.45515500        2.92544954        2.74409026
 C           -0.83549341        2.55776451        2.36623427
 C            2.39290957        2.45938724        1.57760928
 C            1.35534146        3.45682784        1.73571897
 C            2.77192732        0.36596194        0.43834841
 C            2.44930251        1.72516818        0.39301423
 C            2.13062863       -1.81818719       -0.38282212
 C            2.39313165       -0.46204487       -0.61486520
 C            1.47530135       -2.56991632       -1.36133060
 C            0.31300801       -3.72375262        0.38507883
 C           -0.97969752       -3.37895643        0.96053926
 C            0.49204830       -3.49221886       -0.97212074
 C           -2.41071888       -1.52213639        0.45023657
 C           -1.92690386       -2.79599208        0.12814714
 C           -3.20160155       -0.83912063       -0.46586392
 C           -2.66965744        1.28037491        0.64994652
 C           -3.25897029        0.60658371       -0.41220298
 C           -1.45559958        3.29437506        1.36612551
 C           -2.39584535        2.63371836        0.48006118
 C            0.80312741        4.01763299        0.59793548
 C           -0.63826408        4.18542938        0.55997234
 C            1.86766558        2.25692671       -0.76225118
 C            1.19781328        3.48387279       -0.69503043
 C            2.07652144        0.10763232       -1.84573778
 C            1.73330002        1.46117659       -1.90412383
 C            1.54234633       -2.13093357       -2.68281358
 C            1.81971849       -0.72718862       -2.93283217
 C            0.54129079       -2.56131501       -3.64300526
 C           -0.64452387       -3.64749514       -1.75902190
 C           -1.91230566       -3.20627772       -1.20472457
 C           -0.61056237       -3.28582001       -3.15792371
 C           -3.17619809       -1.22226108       -1.86722561
 C           -2.59285152       -2.42601738       -2.22285079
 C           -1.79670158       -2.48957073       -3.43621463
 C           -3.05771084        1.11384517       -1.76257464
 C           -2.88326903       -0.02727930       -2.64629223
 C           -2.18370050        3.14361521       -0.86795002
 C           -1.06229630        4.06246408       -0.82240113
 C            0.10927793        3.76071704       -1.61879087
 C           -2.29487589        2.26319735       -1.94101957
 C            0.96403133        1.92991874       -2.96824921
 C           -0.04542010        2.93726569       -2.71850175
 C           -1.33552778        2.29910033       -2.95575309
 C            0.92971065       -0.27687150       -3.99254705
 C            0.05700852       -1.38154471       -4.33640774
 C           -1.36369816       -1.25211413       -4.05986614
 C           -1.84751320       -0.03587838       -3.58041187
 C            0.37285617        0.98531232       -3.89209068
 C           -1.07417738        1.10990937       -3.75570811
