   70
C70 / DATE: 7/ 1/2024 / Origin: Program Fullerene / C70 from database
 C            1.38792250       -0.02750785        4.91206964
 C            0.60216315       -1.20939036        4.59448067
 C            1.46854179       -2.13076298        3.90669664
 C            2.61828728       -0.10053620        4.14352047
 C            2.72099661       -1.43868553        3.61934399
 C            2.62193688        1.00447669        3.20766996
 C            0.64698478        1.13141195        4.44702062
 C            1.46673759        1.84280902        3.49585871
 C           -0.60571635       -0.77235977        3.92499638
 C           -0.64222059        0.67705326        3.99510182
 C           -1.02864567       -1.38529239        2.73784545
 C            1.00971828       -2.71158689        2.66106450
 C           -0.23312996       -2.36507343        2.11919376
 C            2.98377287       -1.60903208        2.20399424
 C            2.15577020       -2.71667533        1.77842298
 C            2.97761117        0.80196829        1.87246240
 C            3.08505673       -0.50191686        1.35515347
 C            2.72792451        1.85753590        1.00463783
 C            0.84656317        2.48352880        2.42675037
 C            1.64823821        2.77474779        1.33422363
 C           -1.23621712        1.33327257        2.93459759
 C           -0.53399258        2.31980052        2.22445988
 C           -1.99043539       -0.71229794        1.97926132
 C           -2.22256563        0.63856900        2.26335066
 C           -2.38081013       -1.23781735        0.74594390
 C           -0.44856855       -2.68224746        0.77063746
 C           -1.52921597       -2.11886593        0.08309399
 C            1.90924051       -2.84278386        0.42889349
 C            0.62485977       -3.20669016        0.04456839
 C            2.93340429       -0.73422507       -0.02161588
 C            2.63634669       -2.03554740       -0.43783021
 C            2.68598008        1.62408736       -0.42315410
 C            2.68651842        0.32847958       -0.89737499
 C            1.03792714        3.20541272        0.09864490
 C            1.75628770        2.57395452       -0.99881100
 C           -1.13972408        2.85562697        1.07267909
 C           -0.34363013        3.32234407        0.01499532
 C           -3.05699655        1.38021599        1.45366881
 C           -2.49384830        2.57372028        0.85064542
 C           -3.40847754       -0.62035283        0.03659659
 C           -3.84750088        0.69311020        0.46004424
 C           -3.37050306       -0.62416505       -1.41564354
 C           -1.62830085       -2.26869776       -1.30602258
 C           -2.37399803       -1.35129566       -2.05695107
 C            0.44396702       -3.56525434       -1.28256318
 C           -0.76705325       -3.14224433       -1.95871713
 C            2.52099426       -2.30475814       -1.79586529
 C            1.55576093       -3.31876060       -2.18498788
 C            2.16331578        0.07736190       -2.16426467
 C            2.35633743       -1.18708722       -2.70685774
 C            1.04548603        2.23660122       -2.14669279
 C            1.21900171        0.96257129       -2.72214669
 C           -0.88263493        3.46345259       -1.26209449
 C           -0.11737040        2.96233350       -2.39457117
 C           -3.07077856        2.70491770       -0.47552648
 C           -3.92459929        1.54844357       -0.70835250
 C           -3.69572739        0.71827968       -1.87716591
 C           -2.28497427        3.18254615       -1.50986545
 C           -1.05065116        2.49616560       -3.38997190
 C           -2.99813778        1.25007684       -2.95055908
 C           -2.38780694        2.56525519       -2.82287546
 C           -1.91539814       -0.93146341       -3.31502461
 C            0.35528006        0.52760914       -3.74964198
 C           -2.06870239        0.40426264       -3.67348062
 C           -0.86213359        1.17258938       -3.92736778
 C           -0.42547775       -2.86397759       -3.33794184
 C            1.01696311       -2.95327324       -3.47749082
 C            1.51098404       -1.62435731       -3.79388544
 C           -0.83283087       -1.59096248       -3.88631307
 C            0.37189338       -0.80864705       -4.13096123
