   70
C70 / DATE: 7/ 1/2024 / Origin: Program Fullerene / C70 from database
 C            1.06860754       -0.09077618        4.86865848
 C            2.34193581       -0.32101051        4.21498477
 C            2.26443900       -1.61717193        3.55827795
 C            0.23592013       -1.25723144        4.61776647
 C            0.88400686       -2.04081073        3.58192206
 C           -1.11085707       -0.79018078        4.38820283
 C            0.29236300        1.08560056        4.51684432
 C           -1.08832996        0.66595691        4.37480107
 C            0.80825835        2.01384325        3.61993229
 C            2.82434741        0.63980425        3.23662465
 C            2.11822633        1.80987629        3.00925187
 C            2.90505065       -1.49330270        2.27249489
 C            3.32304074       -0.11029735        2.10132993
 C            2.35071032       -2.13468186        1.17440406
 C            0.23274909       -2.26184618        2.36504974
 C            0.99079646       -2.48677216        1.20195707
 C           -1.79004801       -1.21392556        3.18345794
 C           -1.14686532       -2.04009261        2.26120377
 C           -1.85166719        1.10500741        3.21486562
 C           -2.50922350       -0.06479761        2.67430652
 C           -0.06093374        2.59611735        2.60874692
 C           -1.30106884        2.02154979        2.32656142
 C            2.06863292        2.35379984        1.66254583
 C            0.78729617        3.01706867        1.50964834
 C            3.27507885        0.43018683        0.81463730
 C            2.58461716        1.63009376        0.58385373
 C            2.93236667       -1.82562611       -0.04261788
 C            3.42382703       -0.47110837       -0.23245316
 C            2.29061694       -2.24343086       -1.26353562
 C            0.33051751       -2.81609928        0.00701320
 C            1.04086100       -2.83344703       -1.20531008
 C           -1.75484681       -2.18383914        1.01800096
 C           -1.06851313       -2.84280709        0.00257141
 C           -2.84204978       -0.08070351        1.33130729
 C           -2.78997030       -1.30470767        0.68545335
 C           -1.78419849        2.06612879        1.01576969
 C           -2.66552454        1.07204262        0.56398081
 C            0.24191059        3.08817687        0.24234729
 C           -1.12498165        2.87088912        0.08941284
 C            2.13288819        1.94942080       -0.70849007
 C            1.07937592        2.86579607       -0.84327843
 C            3.09858881       -0.06865631       -1.58192698
 C            2.53812480       -1.22258456       -2.26910244
 C            2.54073128        1.17736414       -1.80617779
 C            1.59831923       -1.02426341       -3.28101684
 C            0.36285811       -2.96682853       -2.40941533
 C            0.58291754       -1.96905665       -3.44766498
 C           -1.76410490       -3.17877409       -1.15569469
 C           -1.04210497       -3.30125313       -2.40114303
 C           -3.38046948       -1.38815309       -0.56186772
 C           -2.99670703       -2.47197554       -1.44343914
 C           -3.04942713        1.03915940       -0.78647739
 C           -3.47074482       -0.17074393       -1.34879098
 C           -1.68660313        3.04462033       -1.16718582
 C           -2.62750234        2.05096578       -1.64748120
 C            0.61759001        3.23316986       -2.10069863
 C           -0.81354323        3.40369813       -2.27410450
 C            1.98124647        1.39718779       -3.05918266
 C            1.40828602        0.26723120       -3.77748683
 C            1.11796273        2.53893682       -3.26414868
 C           -2.24034058        1.69957223       -3.00642847
 C           -1.21776911        2.62959849       -3.43558980
 C            0.08432351        0.66839063       -4.22676913
 C           -0.02500613        2.10188053       -4.05199570
 C           -0.72539298       -1.53187921       -3.90697354
 C           -1.70558792       -2.46472282       -3.39113762
 C           -2.90513873       -1.93666495       -2.79131539
 C           -3.05853745       -0.49845706       -2.70516359
 C           -0.99714116       -0.16589587       -3.95221510
 C           -2.16418970        0.35144128       -3.35190747
