   70
C70 / DATE: 7/ 1/2024 / Origin: Program Fullerene / C70 from database
 C            1.29201942       -0.02201525        4.36857973
 C            2.55042056       -0.18293074        3.65828136
 C            2.49931082       -1.45848870        2.95797156
 C            0.48110802       -1.20051439        4.10764363
 C            1.15707480       -1.99427285        3.10687620
 C           -0.86757630       -0.76067206        3.82332957
 C            0.47188489        1.15286086        4.11404962
 C           -0.86334785        0.69368656        3.78017526
 C            1.01219367        2.22151036        3.41459937
 C            3.12859810        0.92287974        3.04386130
 C            2.42103460        2.19319880        3.05702848
 C            3.76119959        0.77957610        1.74170213
 C            3.14466128       -1.60424895        1.73962915
 C            3.84380140       -0.47327468        1.14869276
 C            2.46806388       -2.31357354        0.66677934
 C            0.44086125       -2.38122398        1.97744206
 C            1.11145565       -2.59174950        0.76762089
 C           -1.61101599       -1.43234796        2.85842145
 C           -0.95789167       -2.32661393        1.99777285
 C           -2.75810243       -0.78561133        2.41181476
 C           -1.59030045        1.32282955        2.77137361
 C           -2.73064273        0.66547392        2.32496252
 C            0.27468364        2.77734628        2.29006935
 C           -0.93611820        2.20543762        1.90418387
 C            2.55979138        2.79703482        1.74413906
 C            3.37901506        1.92124528        0.92557297
 C            1.23479082        3.14355514        1.26547081
 C            3.01009232        1.71561625       -0.40117830
 C            3.70896137       -0.58182199       -0.29373682
 C            2.98134860       -1.80604962       -0.58806273
 C            3.43188313        0.55037003       -1.05239973
 C            2.16902587       -1.83690300       -1.71748848
 C            0.38328438       -2.82248524       -0.39728849
 C            0.90015380       -2.42334928       -1.63809304
 C           -1.66132428       -2.90267269        0.94209889
 C           -0.94730537       -3.21257133       -0.28313139
 C           -3.48047316       -1.29309850        1.26055164
 C           -2.96909897       -2.38327884        0.57334987
 C           -3.32044019        1.03642470        1.05612904
 C           -3.98438371       -0.14498069        0.52443506
 C           -1.33381088        2.28999240        0.56312398
 C           -2.61349015        1.86951342        0.19734150
 C            0.92442215        2.87865471       -0.05965077
 C            1.93383992        2.44685074       -0.91671775
 C           -0.40598176        2.66876881       -0.41833954
 C            1.66447600        2.39199479       -2.27541204
 C            3.06562311        0.34794117       -2.37852864
 C            2.43839712       -0.91719679       -2.73179119
 C            2.35204566        1.39901278       -3.07253288
 C            1.45075605       -0.65674656       -3.76740612
 C            1.38264366        0.77763766       -3.95892615
 C            0.07452830       -2.40560693       -2.76179841
 C            0.27069679       -1.38228029       -3.77191299
 C           -1.86039495       -3.02474397       -1.39653340
 C           -3.08787745       -2.44489635       -0.87532893
 C           -1.35749481       -2.60212617       -2.61721932
 C           -4.18988553       -0.23876717       -0.84522899
 C           -3.71781074       -1.41337373       -1.56572100
 C           -3.01145527        1.94674505       -1.13189885
 C           -3.90163673        0.92558146       -1.66189737
 C           -0.73648175        2.59640430       -1.77541499
 C            0.28036749        2.43710065       -2.71530748
 C            0.11015460        1.44652175       -3.76789228
 C           -2.02655560        2.24321164       -2.15138601
 C           -1.00002518       -0.68683522       -3.93709407
 C           -2.02880899       -1.54025656       -3.35377979
 C           -3.19218108       -0.97280271       -2.84963246
 C           -3.35556132        0.46472130       -2.92647159
 C           -1.06704122        0.70508885       -3.79583571
 C           -2.20015442        1.28559401       -3.23403592
