   70
C70 / DATE: 7/ 1/2024 / Origin: Program Fullerene / C70 from database
 C            1.20532173        0.13500361        4.75056599
 C            2.44233140        0.01970163        4.01263219
 C            2.50300794       -1.34376321        3.53147433
 C            0.38685964       -1.02487150        4.40422054
 C            1.14745965       -1.83672876        3.47924779
 C           -0.90938919       -0.53592850        3.99319241
 C            0.39828689        1.31130710        4.52357133
 C           -0.96965851        0.85483812        4.37588807
 C            0.68786537        2.14136685        3.36445861
 C            2.65132462        0.87949958        2.85528437
 C            1.62397222        1.71292080        2.42846878
 C            3.22598213       -1.30755620        2.29029501
 C            3.35891008        0.08333235        1.88288385
 C            2.85453243       -2.18897562        1.29638053
 C            0.61543400       -2.14393484        2.22647022
 C            1.49070508       -2.53051404        1.20228604
 C           -1.40796541       -0.87738645        2.74138753
 C           -0.68506376       -1.73827168        1.89742495
 C           -2.44489813       -0.10373747        2.20989765
 C           -1.61386199        1.76211870        3.45542210
 C           -0.58441649        2.63240419        2.90263216
 C           -2.54697681        1.25247604        2.56026494
 C           -0.72957616        3.00961754        1.57777923
 C            1.33478531        1.82133035        1.05862585
 C            0.22148770        2.57033372        0.63693431
 C            3.21292200        0.35820914        0.52590942
 C            2.12409514        1.14330631        0.10970724
 C            3.55153119       -2.01011015        0.11960541
 C            3.68771762       -0.63308870       -0.33038605
 C            3.18742592       -2.81780225       -1.01111321
 C            0.95966633       -2.89762047       -0.04273368
 C            1.83703871       -3.32747402       -1.03797576
 C           -1.19946173       -2.04803469        0.63462828
 C           -0.34580908       -2.50436383       -0.37579141
 C           -3.11526128       -0.58570145        1.09227473
 C           -2.48843864       -1.63512891        0.30892165
 C           -3.75974738        0.33892586        0.17282310
 C           -2.99625412        2.15997009        1.60783891
 C           -2.04531567        3.16454385        1.16754974
 C           -3.71658073        1.69680873        0.43951094
 C           -2.31683764        3.46728429       -0.20951572
 C           -3.42538031        2.62430386       -0.63695245
 C           -0.05285050        2.69162382       -0.73536963
 C           -1.24460951        3.28743930       -1.15782070
 C            1.72016902        1.12228943       -1.23512466
 C            0.71133723        1.98410294       -1.66775680
 C            3.33010467       -0.60679638       -1.72883304
 C            3.35384891       -1.98631754       -2.18487342
 C            2.29610570        0.22075974       -2.14474379
 C            1.42586984       -3.29515285       -2.42239485
 C            2.34941368       -2.41264686       -3.13017414
 C           -0.77665456       -2.47937043       -1.71656333
 C            0.08696646       -2.85195971       -2.74081834
 C           -2.83684089       -1.41916604       -1.08130176
 C           -3.53035601       -0.14346694       -1.18126060
 C           -1.92675833       -1.76840649       -2.06513085
 C           -3.08105628        2.10675135       -1.94670406
 C           -1.87931185        2.81487591       -2.36894211
 C           -3.19734607        0.74061128       -2.21091676
 C            0.29747061        1.93736033       -3.00158761
 C           -1.08500048        2.24000787       -3.33905395
 C            1.64897774       -0.06905621       -3.35073836
 C            1.54018119       -1.39762612       -3.76575183
 C            0.21588612       -1.97256168       -3.88626365
 C            0.70638107        0.82330337       -3.83604312
 C           -1.98187932       -1.09954673       -3.28834199
 C           -2.56058928        0.23471902       -3.34036808
 C           -1.61599255        1.08916153       -4.03998599
 C           -0.82855905       -1.11271552       -4.17562318
 C           -0.49267763        0.27317367       -4.44950333
