   70
C70 / DATE: 7/ 1/2024 / Origin: Program Fullerene / C70 from database
 C            1.40198224        0.01430945        4.22626957
 C            2.50541825       -0.10461737        3.29281774
 C            2.37185378       -1.38325983        2.60563095
 C            0.56486736       -1.16334590        4.07694937
 C            1.10392011       -1.96518718        2.99086574
 C           -0.81539267       -0.72483226        3.99401992
 C            0.54979842        1.18266333        4.15372636
 C           -0.80868783        0.72650513        3.88389231
 C            1.02709634        2.31256010        3.50778680
 C            2.92563277        1.01148200        2.56841758
 C            2.22636670        2.21879974        2.68164215
 C            3.69238785        0.79387997        1.42561219
 C            2.80000824       -1.47511901        1.28862540
 C            3.75326079       -0.55056012        0.87928255
 C            1.97492044       -2.08739324        0.33217186
 C            0.23963007       -2.42592907        2.00659909
 C            0.67349561       -2.48933151        0.68114707
 C           -1.68087604       -1.44733016        3.19122500
 C           -1.12767888       -2.43567419        2.27567172
 C           -2.69601436       -0.73055807        2.45030185
 C           -1.57622262        1.35615797        2.89732736
 C           -2.49059359        0.61345757        2.14385496
 C            0.08106693        3.16796769        2.81831800
 C           -1.22012253        2.62976561        2.46334124
 C            2.00663356        3.02495202        1.48800629
 C            0.71008567        3.64730984        1.59823153
 C            3.53626467        1.69199401        0.29397321
 C            2.42850404        2.52626152        0.26196364
 C            4.07548061       -0.43177052       -0.52390723
 C            3.92118727        0.96733605       -0.89392225
 C            2.38840859       -2.13976871       -1.00991782
 C            3.32109508       -1.21834257       -1.47160099
 C            1.55072690       -2.70324827       -1.96517033
 C           -0.21879193       -2.90968243       -0.30587115
 C            0.26691756       -3.23399871       -1.56147654
 C           -2.07359831       -2.58273196        1.18153720
 C           -3.15182095       -1.63498486        1.41229268
 C           -1.59481952       -2.76203871       -0.11110199
 C           -3.81142166       -1.10439789        0.31902244
 C           -2.95302255        1.11417870        0.92107463
 C           -3.82339188        0.33919193        0.15485489
 C           -1.47805217        2.99882544        1.08482685
 C           -0.22740299        3.46631837        0.51667531
 C           -2.27524893        2.17073980        0.30905996
 C            1.52585515        2.44445969       -0.81740401
 C            0.20193942        2.89838561       -0.67639703
 C            3.05220122        1.02022869       -2.04677238
 C            2.93779966       -0.33481640       -2.55879769
 C            1.91689816        1.82116574       -2.01772420
 C            1.34895185       -1.98246715       -3.21477409
 C            1.82567433       -0.67636501       -3.32152915
 C           -0.62250463       -3.14171832       -2.70189488
 C            0.02793016       -2.31902522       -3.71022530
 C           -2.43205194       -2.46756692       -1.19395501
 C           -3.56361030       -1.68010205       -0.99020601
 C           -1.95697366       -2.61831219       -2.49411648
 C           -3.94236876        0.61166715       -1.26850803
 C           -3.89185701       -0.66103322       -1.96977036
 C           -2.04519584        2.13011794       -1.06657634
 C           -0.77488262        2.44531800       -1.55745721
 C           -2.97008973        1.49111215       -1.88506695
 C            0.98193059        1.62211737       -3.02959492
 C            0.96543125        0.34516643       -3.73346624
 C           -0.39179842        2.02876423       -2.82274230
 C           -0.88361621       -1.25178994       -4.07206994
 C           -2.16737392       -1.54563312       -3.45663222
 C           -3.02658626       -0.50403437       -3.12637737
 C           -2.52624713        0.86339050       -3.11787374
 C           -0.41613930        0.05616655       -4.09949001
 C           -1.24716650        1.13425014       -3.58462522
