   70
C70 / DATE: 7/ 1/2024 / Origin: Program Fullerene / C70 from database
 C            1.15206893        0.09182997        4.37796128
 C            2.42155040       -0.21369139        3.75904648
 C            2.42375496       -1.63333108        3.45404378
 C            0.32736623       -1.10737684        4.32298046
 C            1.05580518       -2.10712475        3.57660675
 C           -0.98484112       -0.71718292        3.85575888
 C            0.36555746        1.17864433        3.83480115
 C           -1.01555733        0.73499433        3.78830857
 C            0.85176823        1.93259015        2.77138811
 C            2.78806594        0.49001119        2.54484276
 C            1.93022498        1.45497477        2.01230263
 C            3.10310318       -1.80914350        2.18401837
 C            3.39061688       -0.48499846        1.65155714
 C            2.62747742       -2.78104279        1.31759021
 C            0.45679111       -2.70975027        2.47337042
 C            1.28615111       -3.30685849        1.52326992
 C           -1.59762268       -1.44088576        2.84159944
 C           -0.88075735       -2.43169832        2.15218921
 C           -2.72447689       -0.87052360        2.25740344
 C           -1.88163705        1.35173381        2.88641544
 C           -2.86556103        0.57824415        2.27279878
 C           -0.03913908        2.82226120        2.18984104
 C           -1.46555430        2.53495899        2.27805756
 C            0.22492381        3.33577955        0.86231340
 C            2.00144395        1.73065752        0.64094090
 C            1.18808579        2.71914551        0.07396478
 C            3.30144390       -0.27002186        0.28122451
 C            2.85560818        0.97461580       -0.16540437
 C            2.80148002       -2.58812912       -0.10916167
 C            3.26558474       -1.36827234       -0.58667334
 C            0.75655914       -3.68975051        0.22575164
 C            1.68131661       -3.21729182       -0.79031806
 C           -1.45525807       -3.04597983        1.03844872
 C           -0.60267558       -3.59668479       -0.00076313
 C           -3.22296975       -1.36033264        0.98490778
 C           -2.59890715       -2.43567409        0.38369566
 C           -3.42416705        0.98273261        0.99146142
 C           -3.59567415       -0.21210547        0.17883635
 C           -2.08212364        2.97861702        1.03696382
 C           -1.05645290        3.68380765        0.27834889
 C           -2.99927947        2.15726170        0.38033162
 C           -1.16165989        3.75777249       -1.09993894
 C            1.14274292        2.88908607       -1.31424385
 C           -0.02019803        3.37321964       -1.91457377
 C            2.99509300        1.29528498       -1.50708562
 C            2.04841207        2.20650845       -2.11741008
 C            3.15223047       -1.14134913       -1.95352811
 C            3.23905085        0.21868375       -2.44449935
 C            1.20500216       -2.63681075       -1.96616398
 C            2.07636626       -1.80722211       -2.67475085
 C           -1.07447917       -3.09288690       -1.27775532
 C           -2.32724899       -2.39149119       -1.04236473
 C           -0.17433822       -2.57860779       -2.21009813
 C           -3.26749122       -0.16228436       -1.17456840
 C           -2.60671950       -1.24100843       -1.77780210
 C           -3.17292257        2.28452505       -0.99588355
 C           -2.35430525        3.22934741       -1.73238632
 C           -3.30098507        1.08066074       -1.80506170
 C           -0.52187388        2.70661468       -3.10635895
 C           -1.96398491        2.60534791       -2.98513674
 C           -2.57811222        1.29469147       -3.04748949
 C            1.56609183        1.59179190       -3.34556716
 C            2.30247821        0.35882369       -3.54610674
 C            1.56668790       -0.88317775       -3.67302277
 C            0.20277206        1.63616135       -3.62211589
 C           -0.67561598       -1.74579379       -3.20894072
 C           -1.94455337       -1.06671135       -2.99147519
 C           -1.85419076        0.25027687       -3.59487945
 C            0.20472101       -0.82921110       -3.91155926
 C           -0.46706325        0.46274861       -3.99025360
