   70
C70 / DATE: 7/ 1/2024 / Origin: Program Fullerene / C70 from database
 C            1.32579530        0.01843490        5.20157846
 C            0.54816302       -1.19077292        5.01743558
 C            1.47921142       -2.23343717        4.64053577
 C            2.61106215       -0.18991879        4.55057954
 C            2.70410944       -1.58599781        4.19033768
 C            2.72521009        0.79331095        3.49667873
 C            0.64579449        1.09146212        4.49692967
 C            1.61037966        1.71749733        3.62644400
 C           -0.56094820       -0.87756134        4.12516875
 C           -0.54565337        0.55488607        3.88068266
 C           -0.87035762       -1.73244995        3.06597201
 C            1.08029838       -3.15310756        3.60171953
 C           -0.18516832       -2.93967105        2.92172389
 C            2.89234356       -1.93332779        2.78938882
 C            2.11002945       -3.12478129        2.57243931
 C            3.09402979        0.39913220        2.20918897
 C            2.87866110       -0.92929980        1.81556673
 C            3.04983815        1.39324247        1.24506326
 C            1.15816894        2.30675770        2.45532667
 C            2.12005112        2.48411162        1.47570386
 C           -0.88133599        1.00818191        2.61085463
 C           -0.16021119        2.06284722        2.03484225
 C           -1.54299731       -1.21516418        1.95395629
 C           -1.61742729        0.16935380        1.78196369
 C           -1.76241288       -2.04446752        0.84933761
 C            0.02551105       -3.44588447        1.58669732
 C            1.43623719       -3.27268672        1.30473030
 C           -0.83715263       -3.05448750        0.58499845
 C            2.41335461       -1.21814992        0.51229529
 C            1.76821848       -2.43505911        0.24309449
 C            2.92776309        1.02926453       -0.15142213
 C            2.43724432       -0.22219794       -0.47622486
 C            1.70321496        2.97632623        0.19324027
 C            2.37984019        2.18700084       -0.82108324
 C           -0.56218298        2.53293699        0.77499206
 C            0.35897801        3.24686463       -0.00093744
 C           -2.10120011        0.67577193        0.58438706
 C           -1.65595979        1.92456621        0.14121026
 C           -2.49748858       -1.54978751       -0.23599732
 C           -2.76491399       -0.17985668       -0.29114130
 C           -2.45119556       -2.27676580       -1.42995137
 C           -0.32062863       -3.09432366       -0.69450676
 C            0.94135233       -2.51831469       -0.87771613
 C           -1.24442973       -3.02810493       -1.71548031
 C            1.69548934       -0.37676766       -1.65588237
 C            1.13086452       -1.62199057       -1.92934221
 C            1.71733582        2.03462105       -2.02805114
 C            1.38495125        0.74089037       -2.46226352
 C            0.00930852        3.59351681       -1.29573856
 C            0.86183200        3.07928985       -2.35427571
 C           -2.11944393        2.42991643       -1.07692189
 C           -1.35048202        3.38528937       -1.73781838
 C           -3.39851546        0.36021053       -1.40572572
 C           -3.11946927        1.73944375       -1.76523123
 C           -2.89272076       -1.67034791       -2.67268269
 C           -3.47834735       -0.41467051       -2.63561419
 C           -0.78333638       -2.64060823       -3.02647100
 C            0.40188996       -1.81137430       -3.09750871
 C           -1.87148209       -1.93714091       -3.67518704
 C            0.56311154        0.58637210       -3.59539088
 C            0.08519351       -0.67395915       -3.93712593
 C           -1.29401566       -0.82247667       -4.39810608
 C            0.06356387        2.98640351       -3.54824872
 C           -1.28561338        3.39611694       -3.19008375
 C           -0.03605220        1.69966065       -4.19119959
 C           -3.21972397        1.84205141       -3.21436314
 C           -3.25285724        0.49347440       -3.74925217
 C           -2.07072600        0.31306392       -4.58258810
 C           -2.20154780        2.56808651       -3.94197420
 C           -1.40240296        1.59455477       -4.67355605
