   70
C70 / DATE: 7/ 1/2024 / Origin: Program Fullerene / C70 from database
 C            1.28773909       -0.06554375        4.37960411
 C            2.58608823       -0.38690242        3.83710022
 C            2.57072695       -1.78912072        3.45807999
 C            0.45054453       -1.25388659        4.26781218
 C            1.19355014       -2.24813612        3.53125704
 C           -0.83050723       -0.82793847        3.75533485
 C            0.54367402        1.03337301        3.79563180
 C           -0.84487334        0.62126146        3.82567783
 C            1.02941976        1.68407585        2.65674908
 C            3.06248532        0.36610156        2.69720126
 C            2.35101709        1.47095503        2.23166357
 C            3.27681035       -1.91971150        2.19327018
 C            3.58366265       -0.57789202        1.72219792
 C            2.81355959       -2.85446107        1.28352345
 C            0.63380782       -2.83869344        2.40205955
 C            1.51602122       -3.46396857        1.52496390
 C           -1.36489343       -1.44346039        2.62665636
 C           -0.63739942       -2.43731808        1.94388313
 C           -2.44573024       -0.81946339        2.00197941
 C           -1.74317663        1.29993073        3.02582700
 C           -2.69568425        0.52748160        2.24950061
 C            0.11879651        2.36193881        1.83062879
 C           -1.23563337        2.33472808        2.14305596
 C            0.52017957        2.86771073        0.59287503
 C            2.76035170        1.99474056        1.01251677
 C            1.87049296        2.86195660        0.27192270
 C            3.46193736       -0.25687374        0.36993200
 C            3.38303404        1.09297294        0.05268055
 C            2.85945729       -2.53328515       -0.12973937
 C            2.93260360       -1.19808955       -0.52117447
 C            1.03649772       -3.95325931        0.25595170
 C            1.90687551       -3.40971336       -0.77739213
 C           -1.16487016       -2.99711759        0.76623765
 C           -0.32583465       -3.66274664       -0.12288992
 C           -3.04167042       -1.41716308        0.90492101
 C           -2.36737506       -2.52105745        0.25382010
 C           -3.65171028       -0.58547398       -0.12655156
 C           -3.13828285        1.38035340        1.16131284
 C           -2.20735645        2.49760197        1.08099009
 C           -3.60206282        0.80798232       -0.01898320
 C           -0.42624177        3.14016546       -0.40681896
 C           -1.78926459        2.92667084       -0.17154736
 C            0.00616221        3.46475187       -1.69493854
 C            2.27144057        2.77298428       -1.11816488
 C            2.95348303        1.49589862       -1.26960597
 C            1.37235358        3.16454660       -2.09303529
 C            2.26852732       -0.77289824       -1.68466798
 C            2.43466512        0.54089676       -2.13863848
 C            1.06068942       -2.86511024       -1.81442202
 C           -0.30573586       -3.23940982       -1.51310281
 C            1.29095064       -1.58271783       -2.28165692
 C           -2.47944263       -2.32029999       -1.18346496
 C           -3.41758951       -1.23564608       -1.41061370
 C           -1.33347132       -2.42073213       -1.96946048
 C           -3.28592416       -0.46328905       -2.55409897
 C           -3.58346774        1.58927217       -1.17229982
 C           -2.65034841        2.70410340       -1.24441041
 C           -3.60842122        0.94598797       -2.47229742
 C           -0.84987061        3.18052834       -2.83458167
 C           -2.16372180        2.79876200       -2.61017301
 C           -2.70257481        1.66729047       -3.34926823
 C            1.30483194        2.37480091       -3.30724187
 C            1.71048119        0.98019979       -3.24745424
 C           -0.06011115        2.42972414       -3.79741262
 C            0.29468067       -0.99180758       -3.04729677
 C           -1.03569480       -1.39416151       -2.87302111
 C           -2.07406608       -0.59365490       -3.34733246
 C           -1.78565374        0.70376842       -3.93668428
 C            0.59716882        0.17999617       -3.72443015
 C           -0.46610676        1.07749095       -4.14194664
