   70
C70 / DATE: 7/ 1/2024 / Origin: Program Fullerene / C70 from database
 C            1.15311681        0.03603358        4.31477704
 C            2.47770744       -0.31274417        3.86500624
 C            2.46290591       -1.72677029        3.52050107
 C            0.33224877       -1.16200720        4.21874762
 C            1.06937088       -2.12509073        3.43569648
 C           -0.96293227       -0.74808925        3.74077315
 C            0.43810033        1.08913269        3.62155606
 C           -0.95431446        0.70231565        3.65710413
 C            0.94316169        1.62185164        2.43610268
 C            3.02207818        0.38545191        2.72254252
 C            2.20910011        1.23650445        1.96596294
 C            3.30749015       -1.89397264        2.35195711
 C            3.85480429       -0.58198129        2.03445809
 C            2.85368909       -2.70459276        1.31922067
 C            0.55688410       -2.54353949        2.20675596
 C            1.44231108       -3.06682946        1.26675190
 C           -1.55797699       -1.44600119        2.69941118
 C           -0.73882241       -2.16297912        1.81109799
 C           -2.74858121       -0.90676292        2.23447843
 C           -1.82715738        1.29069683        2.75480261
 C           -2.92453060        0.53143296        2.35778554
 C            0.04900841        2.25661322        1.57008821
 C           -1.32510913        2.24234412        1.86703872
 C            0.49786630        2.67431558        0.31392856
 C            2.57039060        1.50003302        0.64109135
 C            1.65355372        2.11002980       -0.21996387
 C            4.22955160       -0.30155084        0.73153850
 C            3.73259881        0.92191456        0.13190095
 C            3.29764618       -2.43746692       -0.03905436
 C            4.10905685       -1.33671015       -0.28352007
 C            1.05339135       -3.13133875       -0.12571614
 C            2.18853678       -2.73096473       -0.93754151
 C           -1.14098913       -2.34018858        0.47440799
 C           -0.20568950       -2.69999968       -0.49918757
 C           -3.26046036       -1.29763889        0.94175824
 C           -2.44012718       -2.00728635        0.07407907
 C           -3.74774177        0.98119338        1.24894647
 C           -4.05819832       -0.18643362        0.43876175
 C           -2.22507127        2.88385913        1.02127980
 C           -3.44429599        2.19004247        0.63539594
 C           -0.34863450        3.38408382       -0.52896525
 C           -1.72820145        3.58570922       -0.14123298
 C           -0.32944046        3.07620729       -1.94517816
 C            1.79307237        2.01108829       -1.61425434
 C            0.69325695        2.27380857       -2.43133615
 C            3.88056439        0.76506284       -1.29633653
 C            4.00858118       -0.66170062       -1.56290441
 C            2.83711019        1.27242528       -2.15894181
 C            1.96408744       -1.94011505       -2.06552480
 C            2.93388574       -1.02074773       -2.47031534
 C            2.51339797        0.21791820       -3.09975272
 C           -0.40918419       -2.32230165       -1.82103937
 C            0.66340623       -1.82242316       -2.56743774
 C           -2.77194570       -2.04511061       -1.28048518
 C           -1.71286195       -2.15024055       -2.26748742
 C           -4.23718337       -0.04924234       -0.93043014
 C           -3.76079506       -1.11184924       -1.79599915
 C           -3.60386386        2.33020984       -0.80359205
 C           -2.56969610        3.23172253       -1.27437449
 C           -1.69934465        2.80317410       -2.35412545
 C           -3.93045874        1.22080335       -1.57494345
 C           -1.98933953       -1.19640688       -3.32937070
 C           -3.21539400       -0.50061972       -2.99526870
 C           -1.98319673        1.62728358       -3.04609757
 C           -3.16754380        0.93528274       -2.78273553
 C            0.42175649        1.41377197       -3.49435770
 C            1.27360317        0.25465210       -3.71315100
 C            0.41898112       -0.90953671       -3.59272256
 C           -0.94930919        0.98896207       -3.73038314
 C           -0.93788145       -0.46469748       -3.85197760
