   70
C70 / DATE: 7/ 1/2024 / Origin: Program Fullerene / C70 from database
 C            1.09746618       -0.05560383        4.62571142
 C            2.33779032       -0.36567084        3.95242767
 C            2.25882769       -1.75589579        3.54029323
 C            0.27487826       -1.25618914        4.58476643
 C            0.86711536       -2.13427385        3.59762396
 C           -1.09088393       -0.83444135        4.39907786
 C            0.28310728        1.02597961        4.11308222
 C           -1.09184328        0.61927371        4.30016326
 C            0.62256369        1.64512060        2.91338042
 C            2.70275284        0.39956570        2.77583551
 C            1.83312926        1.35186542        2.26673252
 C            2.91759442       -1.85796942        2.26422299
 C            3.31974201       -0.52413856        1.84659983
 C            2.35301725       -2.66292169        1.29422117
 C            0.20195687       -2.39276094        2.39342881
 C            0.95131857       -2.80209750        1.28026038
 C           -1.81283773       -1.32486541        3.24569926
 C           -1.13278618       -1.98988825        2.21966109
 C           -2.05917682        0.97408279        3.27587553
 C           -2.72661426       -0.25868886        2.89612771
 C           -0.37211459        2.32584139        2.20997052
 C           -1.69405808        1.86887115        2.26836582
 C            0.01864066        3.13831851        1.15558856
 C            2.00834677        1.75376790        0.94673946
 C            1.28513405        2.84998940        0.50575432
 C            3.29239419       -0.24652376        0.47537825
 C            2.55275766        0.85643071        0.01737034
 C            3.02021833       -2.63680228        0.08376422
 C            3.47904908       -1.33422988       -0.37689520
 C            2.44128488       -3.33212258       -1.03565934
 C            0.29320525       -3.03027330        0.06525756
 C            1.01387370       -3.55010021       -1.00851864
 C           -1.70805124       -2.01206440        0.94318525
 C           -0.96199010       -2.45320437       -0.15181950
 C           -3.33425246       -0.30690122        1.65901688
 C           -2.90831671       -1.33167327        0.72077045
 C           -2.49723561        1.93568725        1.12474253
 C           -3.42845129        0.92190363        0.89707828
 C           -0.94045272        3.47293112        0.12169342
 C           -2.15410583        2.79210550        0.07496878
 C            1.12047946        3.07429856       -0.91382630
 C           -0.18231615        3.69629701       -1.09983546
 C            2.19858668        0.95820470       -1.34043252
 C            1.56340522        2.11098298       -1.81427324
 C            3.12871966       -1.22324878       -1.77715468
 C            2.74224735       -2.55306930       -2.22098162
 C            2.39577285       -0.12370782       -2.20973647
 C            0.53750931       -3.33383623       -2.35844962
 C            1.60569160       -2.68085835       -3.10423906
 C           -1.38714218       -2.13028748       -1.45049938
 C           -0.66617009       -2.55399202       -2.55267359
 C           -3.20415752       -0.82903506       -0.61113124
 C           -3.71871673        0.52255878       -0.46323200
 C           -2.31611412       -1.11427191       -1.63819652
 C           -2.83313856        2.68607828       -1.13989547
 C           -3.49259239        1.43527527       -1.47535714
 C           -0.81809923        3.58700375       -2.32684921
 C           -2.21112852        3.17889116       -2.35890525
 C            1.06217654        2.12584000       -3.11147816
 C           -0.13142542        2.90583385       -3.40914917
 C            1.61751607       -0.24077537       -3.36762923
 C            1.04834027       -1.47400245       -3.67378739
 C           -0.39623711       -1.58908106       -3.59995867
 C            0.93755570        0.87483164       -3.82956993
 C           -2.17465444       -0.22760046       -2.71503407
 C           -2.89815065        0.96792651       -2.71281734
 C           -2.35136549        2.14121148       -3.36948839
 C           -1.08687922        2.02042107       -4.05843656
 C           -1.13138599       -0.40721128       -3.63659483
 C           -0.47132063        0.71288886       -4.14233071
