   70
C70 / DATE: 7/ 1/2024 / Origin: Program Fullerene / C70 from database
 C            1.28317420        0.14063534        4.83264181
 C            0.53833661       -1.08606843        4.62260249
 C            1.31856755       -1.95444707        3.75798697
 C            2.53303900        0.02676541        4.10708673
 C            2.55421813       -1.25742015        3.42783997
 C            2.67914256        1.22277289        3.30706419
 C            0.52450849        1.22236972        4.22577561
 C            1.37422619        1.86412041        3.24363845
 C           -0.79309313       -0.71749394        4.19412512
 C           -0.74185694        0.67850416        3.78503856
 C           -1.47568403       -1.60665101        3.38150367
 C            0.66203225       -2.68143883        2.76628556
 C           -0.73331528       -2.68171716        2.73178316
 C            1.37418720       -3.05452666        1.63094639
 C            3.04632933       -1.32180951        2.12458048
 C            2.58862878       -2.33367539        1.28333693
 C            3.40606029        1.12526918        2.13581704
 C            3.66023970       -0.19674873        1.56918328
 C            3.03269386        1.97885069        1.02804655
 C            0.84426676        2.18927948        1.99417585
 C            1.72181936        2.45110476        0.94298324
 C           -1.22229355        1.02281391        2.52465285
 C           -0.49149335        1.89640534        1.70664361
 C           -2.38569704       -1.07184549        2.38827760
 C           -2.23131197        0.24206783        1.95980050
 C           -1.43407751       -3.00513254        1.49531287
 C           -2.57418757       -2.10365587        1.39176192
 C            0.67357514       -3.37031513        0.39493053
 C           -0.71684504       -3.33142357        0.34579762
 C            2.59552161       -2.13952680       -0.16049904
 C            1.43838154       -2.81189609       -0.71121990
 C            3.70126638       -0.03844728        0.12084769
 C            3.63875864        1.38840791       -0.14588639
 C            2.97945298       -0.91705234       -0.68518860
 C            3.18016457        1.80645956       -1.37735665
 C            1.21716341        2.79436651       -0.31341117
 C            2.10132815        2.77185893       -1.39239408
 C           -1.00960196        2.23419885        0.45731064
 C           -0.16424556        2.72453581       -0.54601346
 C           -2.74024009        0.59606804        0.71499566
 C           -2.27496524        1.76718381        0.12067602
 C           -3.01737799       -1.72396604        0.13410750
 C           -3.35198234       -0.38620483       -0.07368919
 C           -1.33148895       -3.16515713       -0.89300191
 C           -2.61230552       -2.48424116       -0.95569668
 C            0.75791845       -2.25010491       -1.78567112
 C           -0.53932880       -2.68743189       -2.01680309
 C            2.38081260       -0.44611913       -1.85726472
 C            2.79138955        0.79389084       -2.33714408
 C            1.18037335       -1.02298587       -2.31455797
 C            1.58504100        2.74899709       -2.74033211
 C            1.99687199        1.47851336       -3.32956789
 C           -0.67911858        2.97257520       -1.83047487
 C            0.16068591        2.86274882       -2.93773833
 C           -2.88023407        2.22944093       -1.03567557
 C           -2.04799806        2.83472262       -2.05877686
 C           -3.89730320       -0.02363507       -1.30108544
 C           -3.85118965        1.37284336       -1.68969129
 C           -2.74528772       -1.93123478       -2.29124289
 C           -1.41367914       -1.92492822       -2.88485523
 C           -3.56117761       -0.82348791       -2.47090309
 C            0.38975164       -0.37295122       -3.28309717
 C            0.80230282        0.83935277       -3.82906074
 C           -0.17325269        1.90047897       -3.97245408
 C           -0.93740408       -0.76623472       -3.48782846
 C           -2.47335859        2.29483605       -3.34159171
 C           -3.61393449        1.42712074       -3.11897690
 C           -3.23570569        0.09184102       -3.54679231
 C           -1.50168268        1.55196601       -4.12199861
 C           -1.85951188        0.14660855       -4.00961546
