   70
C70 / DATE: 7/ 1/2024 / Origin: Program Fullerene / C70 from database
 C            1.15121393       -0.06610030        4.48357475
 C            2.39053505       -0.38133257        3.81192063
 C            2.36211194       -1.79387807        3.46790824
 C            0.31639169       -1.25770504        4.47428717
 C            1.04554895       -2.30898477        3.79127033
 C           -0.99902904       -0.87568778        3.98568651
 C            0.35463707        1.02834882        3.97225054
 C           -1.02108567        0.57373392        3.86944184
 C            0.85346983        1.84347327        2.96232248
 C            2.73790540        0.35993389        2.61201191
 C            1.92041469        1.39524427        2.16969547
 C            2.85333969       -1.92370414        2.10870983
 C            3.22863497       -0.59646532        1.64163853
 C            2.22124808       -2.79158318        1.22086368
 C            0.38111628       -3.08514255        2.85303746
 C            1.04344007       -3.43571996        1.60332291
 C           -1.62309058       -1.64222905        3.00744696
 C           -1.01766167       -2.81194014        2.54970780
 C           -2.63986292       -1.06177140        2.25846709
 C           -1.84993335        1.17678732        2.92362789
 C           -2.76211111        0.38865943        2.22157614
 C           -0.03928081        2.75617067        2.42081067
 C           -1.45116467        2.39930040        2.38352066
 C            0.28096041        3.41380285        1.17059823
 C            1.99520582        1.77702038        0.82731292
 C            1.34566453        2.93979886        0.41233371
 C            3.10545246       -0.31369759        0.28601632
 C            2.54822275        0.90235916       -0.12032137
 C            2.50165117       -2.64605981       -0.13322020
 C            3.07087212       -1.38900790       -0.59067662
 C            1.53031471       -3.07564628       -1.12788001
 C            0.00251097       -3.68636234        0.61697443
 C           -1.26969530       -3.27460875        1.19348973
 C            0.24936380       -3.43994415       -0.72923350
 C           -2.94933238       -1.57267477        0.93219559
 C           -2.19782066       -2.61490836        0.39357426
 C           -3.16781980        0.76837812        0.87414881
 C           -3.31867536       -0.44175125        0.09207804
 C           -1.96889421        2.82257229        1.09274975
 C           -0.98145032        3.71505331        0.51418636
 C           -2.61548263        1.89558181        0.28217616
 C           -0.98127522        3.91029429       -0.85604510
 C            1.44740518        3.34898418       -0.91299182
 C            0.30377659        4.00800253       -1.52224608
 C            2.39134148        1.16355408       -1.48598966
 C            2.00655332        2.43655645       -1.89336202
 C            2.64413708       -1.17911587       -1.95797200
 C            1.71573329       -2.24336941       -2.30685822
 C            2.37878490        0.10818761       -2.40412407
 C            0.63526325       -1.94410812       -3.13146646
 C           -0.82841756       -3.17689439       -1.56808624
 C           -2.08434704       -2.72179702       -0.98940178
 C           -0.62513990       -2.45649141       -2.81787905
 C           -2.94636054       -0.43966571       -1.24475984
 C           -2.59131583       -1.65086001       -1.83020495
 C           -1.82371576       -1.66119162       -3.06114044
 C           -2.40974195        1.92384618       -1.10032407
 C           -1.82381622        3.05371031       -1.67455983
 C           -2.58510735        0.76093857       -1.86330314
 C            0.14614598        3.48814987       -2.86657345
 C            1.26866255        2.60622138       -3.13640001
 C           -1.20636394        2.96588873       -2.98666756
 C            1.66122181        0.23337124       -3.59030313
 C            0.73507879       -0.82704178       -3.95922269
 C            1.06333334        1.50548771       -3.95399981
 C           -1.72877680       -0.49309762       -3.79893193
 C           -2.21099784        0.74533229       -3.20794460
 C           -1.41505283        1.83138696       -3.75457505
 C           -0.47443726       -0.20239911       -4.46146432
 C           -0.28040744        1.23680638       -4.44280476
