   70
C70 / DATE: 7/ 1/2024 / Origin: Program Fullerene / C70 from database
 C            1.64140720       -0.05531274        4.56907112
 C            0.81111620       -1.24088825        4.54173417
 C            1.25695940       -2.08862496        3.44560948
 C            2.59486013       -0.16867421        3.48348104
 C            2.31024442       -1.38054378        2.74132462
 C            2.56236504        1.07813491        2.75780741
 C            0.78449588        1.08382417        4.27905006
 C            1.38413530        1.81416418        3.17981868
 C           -0.57163290       -0.80274844        4.54013471
 C           -0.56555779        0.58860847        4.11244923
 C           -1.49998295       -1.65728825        3.97319575
 C            0.28556821       -2.76002258        2.71400094
 C           -0.99737614       -2.81908419        3.26461194
 C            0.45038222       -2.90305038        1.32967670
 C            2.26940730       -1.30190851        1.35232586
 C            1.38773482       -2.11635708        0.64304256
 C            2.81200566        1.05019382        1.40015134
 C            2.80561510       -0.17552772        0.72366663
 C            2.42930052        2.16811297        0.68547458
 C            0.56325593        2.34141194        2.18067146
 C            1.17228524        2.71534788        0.97486302
 C           -1.26618954        0.95505409        2.96516282
 C           -0.79937487        2.01617940        2.18155837
 C           -2.51854878       -1.09703091        3.10669872
 C           -2.26216792        0.10966844        2.46390370
 C           -2.10239830       -3.31080135        2.47023855
 C           -3.04366126       -2.20513151        2.33064825
 C           -0.48841050       -3.63058041        0.60425829
 C           -1.82115793       -3.81868994        1.14839850
 C           -0.66003984       -3.34845259       -0.80356412
 C            1.35100215       -2.02292113       -0.75540679
 C            0.29870635       -2.60435308       -1.47327372
 C            2.89189431       -0.15259661       -0.67168253
 C            2.20110753       -1.11904066       -1.41229088
 C            2.96282819        2.28793371       -0.58138498
 C            3.26189614        1.05229254       -1.27907547
 C            2.34384300        3.19652075       -1.51378671
 C            0.39072121        3.26930883       -0.04864224
 C            0.96472669        3.56336480       -1.28244768
 C           -1.60061236        2.46880434        1.14146473
 C           -0.99132658        3.15638453        0.01821413
 C           -2.77078837        0.32669074        1.18109745
 C           -2.62899292        1.58635439        0.61898977
 C           -3.28342692       -2.01163183        0.91335038
 C           -2.74849860       -3.17225588        0.23775371
 C           -2.04119377       -2.95670695       -1.00189856
 C           -3.05543871       -0.75945508        0.34843560
 C           -2.25525099       -1.77967456       -1.70144532
 C           -2.78264272       -0.66904433       -1.02359522
 C           -0.08931204       -2.00918866       -2.66972540
 C           -1.40927441       -1.54562345       -2.77553738
 C            2.11057867       -0.99530992       -2.80320646
 C            0.91314008       -1.47581524       -3.46536660
 C            3.01572864        1.27567885       -2.69139565
 C            2.44660942        2.60774975       -2.83584936
 C            2.50592361        0.24224996       -3.45786434
 C            0.21842980        3.27376702       -2.50030582
 C            1.15990264        2.75987361       -3.49062797
 C           -1.73248333        2.79785849       -1.18093847
 C           -2.65291533        1.72857972       -0.82586428
 C           -2.72325736        0.59404887       -1.62878089
 C           -1.07190788        2.74700994       -2.40501732
 C           -1.71211551       -0.46266747       -3.58543617
 C           -2.30950855        0.69707279       -2.95685334
 C           -1.53476890        1.85783194       -3.37224021
 C            0.57797222       -0.55726658       -4.53612391
 C            1.51622355        0.54808942       -4.48103460
 C            0.75062568        1.78345657       -4.38718645
 C           -0.75748299       -0.00623429       -4.57348778
 C           -0.65530150        1.43888172       -4.45099766
