   70
C70 / DATE: 7/ 1/2024 / Origin: Program Fullerene / C70 from database
 C            1.01374554       -0.04279610        4.61325855
 C            2.31717662       -0.34113398        4.06903114
 C            2.26957522       -1.70169702        3.55669422
 C            0.19844565       -1.23814049        4.45066945
 C            0.87910301       -2.08458862        3.49265679
 C           -1.14227912       -0.80087645        4.15113982
 C            0.26220373        1.05925560        4.04610881
 C           -1.12273850        0.65381197        4.10367172
 C            0.72452973        1.69394711        2.89069918
 C            2.83073310        0.49461966        3.00312119
 C            2.06126918        1.53560046        2.49179042
 C            3.02670469       -1.72540697        2.32842556
 C            3.52224718       -0.38141721        2.07357078
 C            2.53351475       -2.43670355        1.24869824
 C            0.31362005       -2.31614947        2.23554475
 C            1.14764434       -2.67296296        1.16565158
 C           -1.75967864       -1.25100533        2.92051061
 C           -1.02073520       -1.96675521        1.98045098
 C           -1.99071017        1.05242989        3.02090997
 C           -2.57001903       -0.14825938        2.45461119
 C           -0.19564482        2.33201222        2.03963569
 C           -1.56587084        2.02646236        2.12983461
 C            0.27310256        3.09732980        0.96061824
 C            2.49102223        2.10746566        1.30395923
 C            1.57913023        2.91421724        0.52366065
 C            3.68787104        0.02398345        0.74544794
 C            3.28868988        1.31137492        0.37990542
 C            3.25870968       -2.29117667        0.07943119
 C            3.75809858       -0.96379182       -0.24020465
 C            2.76029029       -2.88839097       -1.13275050
 C            0.56711068       -3.01348211       -0.06447939
 C            1.38398229       -3.32502582       -1.15110847
 C           -1.49488104       -2.00828036        0.66955376
 C           -0.78198993       -2.72476130       -0.28764828
 C           -2.91575023       -0.10363919        1.11368376
 C           -2.54189692       -1.15823827        0.27945211
 C           -2.36986754        2.23145127        1.01485216
 C           -3.12199142        1.14585953        0.54045162
 C           -0.63453117        3.60948661        0.03475632
 C           -2.03467881        3.27956934        0.17240485
 C           -0.31569121        3.47835497       -1.37888650
 C            1.80962303        2.61922744       -0.88302090
 C            2.77906742        1.55520868       -0.96379678
 C            0.72250273        2.63090595       -1.74087659
 C            3.31052497       -0.66169778       -1.59079596
 C            2.91669021       -1.91031222       -2.19877749
 C            2.55085681        0.48193720       -1.80843730
 C            0.90930750       -3.05413827       -2.49127015
 C            1.70563627       -1.93839386       -2.97976275
 C           -1.33258830       -2.89913380       -1.55576059
 C           -0.45418123       -3.01581854       -2.71164219
 C           -2.97742066       -1.14582369       -1.05115393
 C           -2.47332702       -2.08715097       -1.94537862
 C           -3.71303738        1.18094160       -0.71566115
 C           -3.61109898       -0.00150850       -1.55544093
 C           -2.63818037        3.38235019       -1.14118016
 C           -1.55526720        3.43931003       -2.11268211
 C           -3.55192227        2.34556399       -1.56228205
 C           -3.32033164        0.44709794       -2.91411868
 C           -1.75496909        2.36848884       -3.05977240
 C           -3.10648836        1.87870831       -2.86148369
 C            0.45496567        1.50233037       -2.53773669
 C            1.35778545        0.41640704       -2.55197905
 C            1.05920950       -0.74460329       -3.28828953
 C           -0.73942576        1.43752823       -3.28007796
 C           -0.93471164       -2.07893056       -3.70755896
 C           -2.27713784       -1.69554116       -3.32937058
 C           -2.43575395       -0.29961329       -3.67140252
 C           -0.17029118       -0.86054592       -3.92154903
 C           -1.09960233        0.24465327       -3.89852601
