   70
C70 / DATE: 7/ 1/2024 / Origin: Program Fullerene / C70 from database
 C            1.60514366        0.07114793        4.40480034
 C            0.79749120       -1.12580167        4.24834297
 C            1.47774158       -2.00360610        3.32235121
 C            2.67840320        0.00979932        3.42954118
 C            2.65991868       -1.30713075        2.83024349
 C            2.55777329        1.15407058        2.55101220
 C            0.77225485        1.20967359        4.06860246
 C            1.39856536        1.92095219        2.97091175
 C           -0.55395414       -0.71913728        3.92942101
 C           -0.58343225        0.73306643        3.87918269
 C           -1.25306482       -1.42330391        2.95497576
 C            0.72164054       -2.74084101        2.41628349
 C           -0.66483431       -2.54515443        2.34887020
 C            1.38832584       -3.27543950        1.31610654
 C            2.98241614       -1.43158590        1.48260144
 C            2.58195585       -2.59887010        0.83827002
 C            2.76269545        0.96583913        1.19062976
 C            3.20538469       -0.27567554        0.72290058
 C            2.18472829        1.86527945        0.29524423
 C            0.57558519        2.46018898        1.98961897
 C            1.08413503        2.63238648        0.70121311
 C           -1.35490500        1.33458761        2.89363161
 C           -0.80630802        2.39358309        2.16334177
 C           -2.33673338       -0.79216813        2.34020783
 C           -2.40558445        0.60368788        2.33995146
 C           -3.16766628       -1.52286969        1.49750748
 C           -1.39936960       -3.27852742        1.41823305
 C           -2.72269997       -2.82157568        1.03596585
 C            0.63974800       -3.72944421        0.15564842
 C           -0.74254213       -3.74899520        0.21111596
 C            2.58195363       -2.66566690       -0.61257810
 C            1.29230709       -3.18891396       -1.02574593
 C            3.51008460       -0.40393178       -0.62884552
 C            3.13499726       -1.62131658       -1.33236121
 C            2.56596146        1.82798560       -1.04486170
 C            3.25161954        0.71396596       -1.52374606
 C            1.96437530        2.69259228       -1.94977006
 C            0.31549968        3.32053192       -0.24347845
 C            0.74274381        3.37150195       -1.56729709
 C           -1.61451666        3.07830660        1.26646889
 C           -1.04463171        3.51370945        0.00298935
 C           -3.29530328        1.25029084        1.48625849
 C           -2.94932163        2.57288614        1.00055622
 C           -3.79329296       -0.86018425        0.36730796
 C           -3.87348349        0.52091935        0.37046503
 C           -2.78755534       -2.81408698       -0.41896880
 C           -1.49189582       -3.23145125       -0.91919888
 C           -3.30636439       -1.52226321       -0.82898106
 C            0.54743108       -2.49117422       -1.97592048
 C           -0.84539757       -2.43497262       -1.86138660
 C            2.50917894       -1.22472159       -2.58200754
 C            2.89742906        0.15453135       -2.81972661
 C            1.20373505       -1.63346263       -2.86164943
 C            1.82352578        2.28391415       -3.33969093
 C            2.15766381        0.92034049       -3.70876039
 C           -0.23590185        3.12075202       -2.61190563
 C            0.44893615        2.53439196       -3.74250867
 C           -1.99275399        3.18465065       -1.05132973
 C           -3.15573476        2.58228151       -0.43903934
 C           -3.51311967        1.24120420       -0.83836664
 C           -1.48906594        2.65240073       -2.23182428
 C           -2.60154516       -0.78336942       -1.77642607
 C           -1.54674612       -1.38767334       -2.46211222
 C           -2.73713341        0.60866460       -1.80539501
 C           -1.90304494        1.36844806       -2.63465072
 C            0.45055269       -0.91098345       -3.78180457
 C            0.98247268        0.32871597       -4.32485459
 C           -0.08443699        1.31642455       -4.30491011
 C           -0.96262116       -0.70816770       -3.52108691
 C           -1.23941330        0.70879340       -3.66958341
