   70
C70 / DATE: 7/ 1/2024 / Origin: Program Fullerene / C70 from database
 C            1.52250510        0.06338005        4.39168819
 C            0.73014545       -1.14078613        4.23123846
 C            1.42543298       -2.01772307        3.31352203
 C            2.62158916       -0.00445205        3.44544457
 C            2.56488905       -1.28403215        2.77727779
 C            2.57324029        1.18325468        2.62991600
 C            0.68910397        1.19261208        4.01718627
 C            1.38495099        1.93594403        2.98711961
 C           -0.61982682       -0.74770139        3.89316287
 C           -0.63728100        0.69432616        3.71607024
 C           -1.31765170       -1.51892516        2.97750581
 C            0.67175282       -2.79478344        2.44011066
 C           -0.72326334       -2.67110088        2.44516715
 C            1.30547468       -3.26830817        1.29437095
 C            2.81421252       -1.34851495        1.40742564
 C            2.41306421       -2.50130993        0.74540552
 C            2.87629390        1.08699917        1.28250167
 C            3.00819209       -0.16960932        0.66952453
 C            2.52068732        2.16432173        0.48930454
 C            0.64223889        2.49645416        1.95118758
 C            1.30619750        2.80837321        0.75979769
 C           -1.30681637        1.21885216        2.61366810
 C           -0.74101715        2.29386516        1.92232179
 C           -2.36939782       -0.92148936        2.29124490
 C           -2.29778419        0.44747812        1.99532009
 C           -3.27288867       -1.74412513        1.63269009
 C           -1.46733392       -3.46184729        1.57072254
 C           -2.83475107       -3.07463110        1.26012487
 C            0.51796842       -3.78031596        0.18470817
 C           -0.85425908       -3.90286357        0.32894718
 C            2.27971345       -2.49405282       -0.69706095
 C            1.05099864       -3.19664713       -1.03533918
 C            3.09321205       -0.22873709       -0.73287474
 C            2.61278224       -1.35366719       -1.41447654
 C            3.07032683        2.21628057       -0.77711117
 C            3.32972425        0.95418802       -1.44150296
 C            2.53031912        3.14504970       -1.74272071
 C            0.60564852        3.46054814       -0.26175726
 C            1.23200636        3.72679721       -1.47837662
 C           -1.47937717        2.89596643        0.91650555
 C           -0.78497846        3.52324322       -0.19666718
 C           -3.03682240        0.99057572        0.93398847
 C           -2.64222795        2.20697462        0.38576257
 C           -4.03072308       -1.21520403        0.52296769
 C           -3.79428432        0.15346137        0.12003929
 C           -3.01406615       -3.20526634       -0.17786577
 C           -1.70681848       -3.44535045       -0.75233672
 C           -3.77020448       -2.06207144       -0.63141667
 C            0.19024510       -2.63447919       -1.97726314
 C           -1.17985871       -2.56823618       -1.70238504
 C            2.04849627       -1.21048585       -2.68034920
 C            0.73830061       -1.78859044       -2.93376244
 C            2.86774879        1.08481454       -2.81449732
 C            2.46848596        2.46561675       -3.02578501
 C            2.11302128        0.06284761       -3.36947646
 C            0.45722654        3.62602976       -2.70316028
 C            1.16956539        2.74202715       -3.60988694
 C           -1.57094367        3.28964872       -1.40052210
 C           -2.59899618        2.32419189       -1.06269457
 C           -0.91575210        3.16667575       -2.61610139
 C           -3.52280100        0.14835155       -1.30892035
 C           -3.20273955       -1.21714058       -1.66218380
 C           -1.93674531       -1.48000764       -2.17398697
 C           -2.73828900        1.17021922       -1.82890579
 C           -0.08911480       -0.74595201       -3.50174030
 C            0.78562697        0.33697600       -3.91146603
 C            0.28919397        1.63213070       -3.92868389
 C           -1.00705363        1.90017592       -3.32761378
 C           -1.30884013       -0.46834524       -2.89918528
 C           -1.74767396        0.85810140       -2.76586252
