   70
C70 / DATE: 7/ 1/2024 / Origin: Program Fullerene / C70 from database
 C            1.42125115        0.01681484        4.38952210
 C            2.60084412       -0.30734409        3.62311476
 C            2.54416355       -1.72419379        3.29790589
 C            0.57168539       -1.16187664        4.43382036
 C            1.29568695       -2.25886132        3.81545265
 C           -0.73278271       -0.79299778        3.89822141
 C            0.60412296        1.11908471        3.93826327
 C           -0.76189889        0.64449968        3.79798089
 C            1.08379714        1.98452464        2.95978722
 C            2.84877277        0.42557726        2.39270959
 C            2.04190232        1.51272593        2.04849749
 C            2.83542787       -1.86658927        1.88028823
 C            3.17824169       -0.54931582        1.37200620
 C            2.04260442       -2.71070046        1.10020309
 C            0.58211730       -3.14579811        3.02433784
 C            1.14119579       -3.55365674        1.74746402
 C           -1.27626801       -1.55852746        2.87726127
 C           -0.82057357       -2.86821718        2.76656635
 C           -1.86528287       -0.92035236        1.77009037
 C           -1.54206428        1.25303576        2.82795233
 C           -2.04733613        0.47493482        1.77048805
 C            0.17625024        2.94190571        2.52896297
 C           -1.23200923        2.58480915        2.58755329
 C            0.38808311        3.60767293        1.26322331
 C            1.96012954        1.88449912        0.69845127
 C            1.25171389        3.03439442        0.33910103
 C            2.87407334       -0.26011457        0.05564177
 C            2.46994727        1.02836766       -0.29000699
 C            1.88622514       -2.42141562       -0.26443055
 C            2.55425450       -1.31236195       -0.78984530
 C            0.89975408       -3.06357472       -1.03293698
 C            0.04432751       -4.13068987        1.00366490
 C           -1.19101363       -3.65704857        1.61919356
 C           -0.05864954       -3.85763596       -0.41127559
 C           -2.25788838       -1.66956389        0.64836412
 C           -1.97081312       -3.03366013        0.57700434
 C           -1.45560035       -3.57217802       -0.66570769
 C           -2.62846454       -1.01639339       -0.52841162
 C           -2.56406079        1.10598306        0.62449043
 C           -2.79200450        0.36681097       -0.53756091
 C           -1.91298998        3.28607993        1.53164084
 C           -0.91590066        4.06788332        0.81804234
 C           -2.62466185        2.50050838        0.55497553
 C           -1.23381264        3.99214191       -0.59443318
 C           -2.42288433        3.16088346       -0.72236429
 C            1.10370948        3.36648556       -1.00470506
 C           -0.19057492        3.82656220       -1.49525225
 C            2.32174875        1.33619617       -1.64495715
 C            1.68639080        2.51480911       -2.02164468
 C            2.50471823       -1.05931450       -2.15052538
 C            2.49586148        0.32543328       -2.59075173
 C            0.61603561       -2.59121103       -2.31695789
 C            1.54934240       -1.78710678       -2.95948232
 C           -1.77537981       -2.91370408       -1.83523046
 C           -2.58183388       -1.71317895       -1.73955856
 C           -0.70639167       -2.60800923       -2.77070069
 C           -2.38860502       -0.98775347       -2.98252385
 C           -1.20010615       -1.53523769       -3.62302912
 C           -2.98819088        1.02903381       -1.75280783
 C           -2.61967223        2.42586217       -1.87909437
 C           -2.61508200        0.37787039       -2.99463796
 C           -0.44417613        3.16651592       -2.76389517
 C            0.79186531        2.52158008       -3.17237612
 C           -1.65969195        2.52244670       -2.97009378
 C           -1.69491930        1.26137438       -3.69577543
 C            1.75604140        0.38257007       -3.83877244
 C            1.12373943       -0.91057129       -4.03884017
 C           -0.29412008       -0.68894663       -4.24831092
 C            0.74636367        1.41047200       -4.00414342
 C           -0.52668462        0.74775188       -4.25120326
