   70
C70 / DATE: 7/ 1/2024 / Origin: Program Fullerene / C70 from database
 C            1.58877391       -0.04751723        4.50889759
 C            0.80094853       -1.23064840        4.21728157
 C            1.56969050       -2.06247377        3.32339607
 C            2.72427096       -0.04164539        3.60168555
 C            2.70231588       -1.27560682        2.85555233
 C            2.69188909        1.19486091        2.86138378
 C            0.77351835        1.11297836        4.19863628
 C            1.53814978        1.96054234        3.31267433
 C           -0.50292080       -0.80360797        3.77267624
 C           -0.51526016        0.65022108        3.73480432
 C           -1.09762946       -1.48178642        2.72066892
 C            0.90142415       -2.83525324        2.38224783
 C           -0.46166743       -2.58656008        2.13062510
 C            1.69052810       -3.32428907        1.35232172
 C            2.96512021       -1.25566411        1.48663927
 C            2.70688120       -2.44090132        0.80398295
 C            2.97404600        1.18416877        1.49797028
 C            2.92418072       -0.03124651        0.78939279
 C            2.71820135        2.37127950        0.82422474
 C            0.86111210        2.71306027        2.36081784
 C            1.63236166        3.20466280        1.31400483
 C           -1.08311704        1.28213676        2.63040272
 C           -0.49815883        2.45273587        2.13127511
 C           -2.08493719       -0.81801586        2.00920998
 C           -1.97810662        0.56284873        1.83097704
 C           -2.89787051       -1.56437082        1.17821845
 C           -1.11232799       -3.24362427        1.07072208
 C           -2.40972854       -2.85594801        0.72929070
 C            1.06861213       -4.03060833        0.26011872
 C           -0.37040031       -3.96905449        0.13502038
 C            2.52705353       -2.42076880       -0.63009402
 C            1.64043198       -3.51906523       -0.97554949
 C            2.68775117       -0.02266061       -0.59967686
 C            2.35035146       -1.20373133       -1.26324379
 C            2.66377214        2.38592096       -0.61889448
 C            2.64828982        1.18205088       -1.31014618
 C            0.99270805        3.83035159        0.17346437
 C            1.75242545        3.45433168       -1.00751164
 C           -1.16063553        3.14596034        1.12215681
 C           -0.39253911        3.86996118        0.12006636
 C           -2.58048622        1.18046816        0.73017692
 C           -2.27937863        2.51021536        0.44787173
 C           -3.56572413       -0.91482345        0.06834653
 C           -3.28242444        0.41823013       -0.20847937
 C           -2.86889602       -3.04598086       -0.63678422
 C           -3.61566223       -1.86356132       -1.03002402
 C           -0.65474490       -3.81556574       -1.28413858
 C            0.54194231       -3.26436257       -1.89168290
 C           -1.88732381       -3.31635401       -1.66944830
 C            1.54917237       -1.14931618       -2.40079393
 C            0.47341531       -2.02755834       -2.52496798
 C            2.22189673        1.17933630       -2.63826708
 C            1.56729341       -0.00094154       -3.17076742
 C            1.12072744        3.38718434       -2.24154995
 C            1.52178573        2.34061038       -3.16222086
 C           -1.06975436        3.72694805       -1.15883870
 C           -2.29052510        2.97090822       -0.93021769
 C           -0.32801568        3.51733960       -2.31839806
 C           -3.37041041        0.85697659       -1.53068833
 C           -2.77483975        2.12528933       -1.91726431
 C           -3.13246043       -1.44072571       -2.33105502
 C           -1.93547496       -2.21303963       -2.61765796
 C           -0.76130868       -1.54476332       -2.97046732
 C           -3.12480033       -0.08428242       -2.61345844
 C            0.33656125        0.41955001       -3.81380412
 C            0.33539645        1.87205215       -3.85836066
 C           -0.81001883        2.58943905       -3.33100828
 C           -1.99210976        1.89100694       -3.12285372
 C           -0.84141266       -0.25865286       -3.51197831
 C           -2.03192835        0.46134939       -3.39691019
