   70
C70 / DATE: 7/ 1/2024 / Origin: Program Fullerene / C70 from database
 C            1.31471713       -0.08163495        4.21548195
 C            2.57168152       -0.35407686        3.55694978
 C            2.47994213       -1.66774756        2.93999048
 C            0.46282345       -1.24909088        4.04543939
 C            1.12588668       -2.14812553        3.11905308
 C           -0.87001090       -0.77297272        3.71339575
 C            0.54685361        1.07497315        3.79541496
 C           -0.84715277        0.67378910        3.83808704
 C            0.99776277        1.86334644        2.73250433
 C            3.03162253        0.56763765        2.54039549
 C            2.31895434        1.73525731        2.27582237
 C            3.00025877       -1.56065918        1.59019943
 C            3.51267354       -0.21664119        1.41469960
 C            2.29132271       -2.12713233        0.54626575
 C            0.41983512       -2.58815759        2.00663409
 C            1.08928871       -2.79732141        0.79725912
 C           -1.54165980       -1.35083969        2.63736938
 C           -0.96415136       -2.44713353        1.99635891
 C           -2.55099665       -0.62987517        1.99060785
 C           -1.76739991        1.41245106        3.11873585
 C           -2.75403902        0.71094322        2.31615658
 C            0.06548290        2.61774213        2.00488584
 C           -1.29083212        2.52618055        2.31985032
 C            0.45999140        3.33201299        0.87116565
 C            2.72798349        2.46558450        1.16840928
 C            1.80502367        3.38268325        0.53263178
 C            3.48216671        0.37030186        0.14981480
 C            3.44231362        1.76212192        0.11322386
 C            2.56829187       -1.69353713       -0.74087812
 C            2.99960808       -0.37088674       -0.94682758
 C            2.08877044       -2.45837019       -1.79346322
 C            0.39278794       -3.37577047       -0.26958810
 C            0.92982830       -3.30399245       -1.55894198
 C           -1.68313969       -3.10617348        1.01377584
 C           -0.95783751       -3.68446931       -0.10467000
 C           -3.16710170       -1.16620306        0.85605208
 C           -2.88151261       -2.47819462        0.48986986
 C           -3.76083025       -0.31591121       -0.08008268
 C           -3.20242744        1.63514065        1.29041679
 C           -2.28465520        2.76538780        1.28796084
 C           -3.67655494        1.12508833        0.09077820
 C           -0.48842682        3.70320716       -0.08442430
 C           -1.88095601        3.32675753        0.08597919
 C           -0.17610228        3.56678477       -1.49906819
 C            2.17806080        3.47026262       -0.86960402
 C            3.16512643        2.43570496       -1.13208292
 C            1.13943267        3.36742016       -1.87955976
 C            2.78107651        0.26090667       -2.18789572
 C            2.69834341        1.64620026       -2.24495571
 C            1.46262807        2.23641398       -2.73367829
 C            1.94195631       -1.85048992       -3.09312219
 C            2.10742518       -0.42120477       -3.19336229
 C            0.04590775       -3.17674748       -2.71386393
 C            0.61927164       -2.17809868       -3.59368453
 C           -1.84083708       -3.65761270       -1.25585770
 C           -3.01093122       -2.87125926       -0.90290717
 C           -1.32501977       -3.15440769       -2.51158412
 C           -3.60540305       -0.58535477       -1.50210995
 C           -3.17823618       -1.83827555       -1.90795506
 C           -2.05878586       -1.93610061       -2.83102415
 C           -3.22040509        1.68994495       -1.17188408
 C           -2.33966853        2.75888268       -1.17421321
 C           -1.20819026        2.73327326       -2.08480442
 C           -2.98518707        0.58748693       -2.08689070
 C            0.45741580        1.38077942       -3.18824616
 C            0.85821322        0.14455217       -3.68303927
 C           -0.10293525       -0.93308518       -3.78901194
 C           -1.35684724       -0.78723870       -3.20928679
 C           -0.85271510        1.54248869       -2.72054536
 C           -1.74978055        0.46308441       -2.72252187
