   70
C70 / DATE: 7/ 1/2024 / Origin: Program Fullerene / C70 from database
 C            1.13682068        0.05562133        4.39164389
 C            2.41548601       -0.24475811        3.79084173
 C            2.43516948       -1.66878893        3.51170516
 C            0.30974154       -1.14106478        4.30710969
 C            1.06828312       -2.15110432        3.61024317
 C           -0.97225012       -0.75054903        3.76978187
 C            0.36323609        1.14948522        3.84617881
 C           -1.01402727        0.70209015        3.75473290
 C            0.87465249        1.91902006        2.80609684
 C            2.78567778        0.44398890        2.56885350
 C            1.95319359        1.43877402        2.04713893
 C            3.13801957       -1.86418589        2.25703801
 C            3.33934506       -0.54944092        1.66471682
 C            2.71797961       -2.90092829        1.43941849
 C            0.51765664       -2.79370831        2.50448650
 C            1.40996703       -3.48522540        1.69142573
 C           -1.50699340       -1.44074874        2.68978401
 C           -0.71247103       -2.35353471        1.97268179
 C           -2.61662813       -0.86939673        2.08124383
 C           -1.85835824        1.34072151        2.84933507
 C           -2.80456838        0.57253282        2.17366772
 C           -0.00098322        2.82694351        2.23084574
 C           -1.42977838        2.54339860        2.28900205
 C            0.28534488        3.36277796        0.91774235
 C            2.03333532        1.72857447        0.67660614
 C            1.23098408        2.73222780        0.11998299
 C            3.14729914       -0.36743654        0.30067953
 C            2.80293111        0.90274064       -0.14933517
 C            2.82613457       -2.74254486        0.00336379
 C            2.91773830       -1.46521819       -0.53587172
 C            0.94862667       -4.06260363        0.45291916
 C            1.89081098       -3.67535875       -0.58882319
 C           -1.14775838       -2.81651503        0.71462841
 C           -0.37342745       -3.71962025       -0.01233876
 C           -3.00909951       -1.28853516        0.75434050
 C           -2.22709139       -2.20393010        0.07142206
 C           -3.35537990        1.03297185        0.90815157
 C           -3.53027409       -0.12698516        0.04767432
 C           -2.02436811        3.03111329        1.05416683
 C           -0.98371680        3.75808342        0.33812136
 C           -2.92727076        2.23280973        0.35252418
 C           -1.07365193        3.89126986       -1.03682428
 C            1.18589100        2.91621996       -1.26549511
 C            0.07043181        3.52038702       -1.85414032
 C            2.85190354        1.14047957       -1.51460444
 C            2.08462987        2.23294986       -2.07564048
 C            2.45893506       -1.23973913       -1.83523800
 C            2.72619979        0.00004512       -2.40419555
 C            1.11582973       -3.24356491       -1.73713610
 C           -0.27203415       -3.55960611       -1.45054293
 C            1.41460823       -2.02624932       -2.34729832
 C           -2.32911816       -2.25410280       -1.31660656
 C           -1.25838468       -2.84180821       -2.10216654
 C           -3.32090234       -0.00197029       -1.32489951
 C           -2.81605050       -1.08731284       -2.03697808
 C           -3.09619483        2.42858014       -1.01481078
 C           -2.26498395        3.40059008       -1.70173662
 C           -3.24094085        1.27073651       -1.88540183
 C           -0.43805939        3.01508899       -3.12318357
 C           -1.86668590        2.83112598       -2.97770084
 C           -2.40556759        1.48628563       -3.05853082
 C            1.66830071        1.83323964       -3.40809289
 C            1.97090514        0.42151379       -3.56384648
 C            0.28605964        2.04081658       -3.79201289
 C            0.45831469       -1.45811970       -3.19824895
 C           -0.87010134       -1.85986579       -3.10028341
 C           -1.91899729       -0.85534058       -3.16051985
 C           -1.59726271        0.44998538       -3.52007288
 C            0.73750250       -0.27098555       -3.86351819
 C           -0.31456529        0.72765769       -4.00420041
