   70
C70 / DATE: 7/ 1/2024 / Origin: Program Fullerene / C70 from database
 C            1.54341521       -0.04479898        4.65050604
 C            0.75469822       -1.22717611        4.36478301
 C            1.35592268       -1.91469468        3.23422207
 C            2.64998899       -0.01627014        3.71211728
 C            2.53714983       -1.16244584        2.84207456
 C            2.66391409        1.28733135        3.09486072
 C            0.70596983        1.11148672        4.37637775
 C            1.40481457        1.94113292        3.42434951
 C           -0.62597438       -0.80696322        4.24587748
 C           -0.61124951        0.63094848        4.02544104
 C           -1.45621671       -1.57162144        3.44568927
 C            0.51267643       -2.42549113        2.24367303
 C           -0.84636341       -2.52439709        2.52706746
 C            0.93562610       -2.40847041        0.90845171
 C            2.77942823       -0.98917132        1.48975219
 C            2.19804155       -1.89027565        0.61168202
 C            3.11355523        1.40502259        1.78575034
 C            3.23627278        0.24418176        0.99856404
 C            2.79284974        2.59940026        1.15941645
 C            0.69503660        2.54264606        2.38870738
 C            1.46455840        3.14111677        1.39189124
 C           -1.24802042        1.14039682        2.89429213
 C           -0.58994052        2.06917123        2.06579998
 C           -2.50093547       -0.89954897        2.69783130
 C           -2.36396533        0.45378747        2.40885681
 C           -1.78580761       -2.73276758        1.44535985
 C           -2.89353883       -1.80897241        1.63882356
 C            0.02571276       -2.66605324       -0.13152467
 C           -1.31732043       -2.93823860        0.15528345
 C            0.43876529       -2.53357594       -1.46279716
 C            2.67516529       -1.93435183       -0.68406781
 C            1.78953401       -2.37515856       -1.74193430
 C            3.51139766        0.35198024       -0.37569149
 C            3.42996167       -0.79318892       -1.17057653
 C            3.11075371        2.77038056       -0.23634612
 C            3.48554963        1.60179832       -1.00037527
 C            0.87977307        3.40440713        0.09230336
 C            1.94976501        3.36419496       -0.88172344
 C           -1.15302272        2.40120308        0.82751947
 C           -0.33350599        2.81546765       -0.21607928
 C           -3.06794608        0.97333329        1.33242099
 C           -2.45492028        2.02143933        0.54135806
 C           -3.53605080       -1.31012128        0.51201234
 C           -3.75408018        0.06778995        0.41880800
 C           -2.25944659       -2.87501094       -0.86725228
 C           -3.45360563       -2.07003617       -0.65138619
 C           -0.50406081       -2.29811318       -2.46923427
 C           -1.82623502       -2.66165517       -2.23423684
 C           -0.19302295       -1.44942166       -3.54513471
 C            2.16775412       -1.67322744       -2.94754723
 C            3.14593689       -0.65817154       -2.58922899
 C            1.12202341       -1.03603092       -3.71739645
 C            2.85068057        1.74482904       -2.30145214
 C            1.72984911        2.65107902       -2.12255545
 C            2.67435072        0.61924668       -3.09056428
 C            1.38146147        0.39543005       -3.71945969
 C           -0.59782847        2.38652196       -1.52225365
 C            0.45131653        2.20230560       -2.43657061
 C            0.31840359        1.26267214       -3.45892760
 C           -2.84252126        1.82384255       -0.84525993
 C           -3.79452451        0.72222191       -0.88223006
 C           -1.88427695        1.95317852       -1.85089737
 C           -3.83622162       -1.48650071       -1.92229127
 C           -2.90136423       -1.96915713       -2.92490183
 C           -3.90983980       -0.04257563       -2.03417288
 C           -1.16638762       -0.57777072       -4.02163796
 C           -0.95525095        0.84419558       -3.82365927
 C           -2.09769549        1.33685287       -3.07932398
 C           -2.56564426       -0.85578187       -3.78200538
 C           -3.15528818        0.34621353       -3.21122749
