   70
C70 / DATE: 7/ 1/2024 / Origin: Program Fullerene / C70 from database
 C            1.39292663       -0.01128599        4.84275200
 C            0.64493182       -1.20454048        4.50840105
 C            1.31287099       -1.87000067        3.39915872
 C            2.60693052       -0.03265946        4.05781353
 C            2.55802119       -1.17787599        3.15884941
 C            2.74039883        1.27862843        3.45778941
 C            0.61084056        1.12795956        4.38835909
 C            1.39325059        1.82304041        3.38654863
 C           -0.72856569       -0.79487962        4.31408409
 C           -0.69423492        0.62992727        4.01780030
 C           -1.50620089       -1.59093951        3.49304448
 C            0.53531799       -2.28376405        2.32446935
 C           -0.81798883       -2.48408657        2.57058218
 C            0.96032753       -2.02558138        1.01151476
 C            2.99854819       -0.98294500        1.85661328
 C            2.21037827       -1.42821381        0.77783132
 C            3.51371802        1.35354740        2.31920860
 C            3.85104819        0.09954453        1.66808310
 C            3.05375132        2.20216087        1.24373201
 C            0.82987496        2.07727456        2.13173329
 C            1.67797808        2.34487804        1.05067299
 C           -1.27867051        1.06567652        2.83328967
 C           -0.51855773        1.78929684        1.89717849
 C           -2.55245945       -0.95327448        2.71807515
 C           -2.42087855        0.39389578        2.40183643
 C           -1.70772981       -2.71498497        1.46037864
 C           -2.88675555       -1.88722383        1.66281543
 C            0.09235171       -2.28158983       -0.06599408
 C           -1.18701703       -2.80420632        0.17994194
 C            0.44495395       -1.86534484       -1.35907931
 C            2.60437219       -1.13649758       -0.53881644
 C            1.72928769       -1.37722267       -1.60395433
 C            4.26617541        0.43959562        0.33421208
 C            3.88676302        1.83249290        0.12492095
 C            3.70630958       -0.30848329       -0.76548059
 C            3.32219097        1.90890321       -1.19538581
 C            3.63911929        0.64933791       -1.84508445
 C            1.15910538        2.39732791       -0.25554089
 C            2.03784401        2.41821181       -1.35326200
 C           -1.06513069        2.06871489        0.64464382
 C           -0.22138661        2.23627542       -0.45819874
 C           -3.09784253        0.87827075        1.29512668
 C           -2.42287794        1.84182161        0.44730880
 C           -3.55227672       -1.42654504        0.53496923
 C           -3.80380932       -0.05483589        0.42706323
 C           -2.12059532       -2.84222564       -0.84587774
 C           -3.39950740       -2.18063406       -0.62415990
 C           -0.47897979       -1.94631510       -2.41356832
 C           -1.71005126       -2.55441309       -2.19887497
 C           -0.28967761       -1.19024446       -3.57612105
 C            2.02772350       -0.84580050       -2.86193774
 C            2.89824783        0.31598509       -2.95776836
 C            0.96100106       -0.64813285       -3.82622541
 C            1.52591246        2.36306081       -2.64231582
 C            2.09930350        1.37440498       -3.54248315
 C            1.01278507        0.74197885       -4.25091805
 C           -0.75672291        2.23834118       -1.75600546
 C            0.09309272        2.35714901       -2.85079373
 C           -0.16658382        1.55747409       -4.04035275
 C           -2.93821094        1.68103213       -0.89706811
 C           -3.89031260        0.57565060       -0.88205317
 C           -2.07889214        1.83791722       -1.97603425
 C           -3.85047719       -1.64651417       -1.89213483
 C           -2.88507950       -2.05736777       -2.89661177
 C           -4.03990365       -0.21408660       -2.01420607
 C           -1.38099412       -0.53305668       -4.14608594
 C           -1.38821249        0.91866787       -4.13779219
 C           -2.43364369        1.28788754       -3.20708256
 C           -2.72505551       -0.95475547       -3.81582072
 C           -3.40237032        0.20419606       -3.24771344
