   70
C70 / DATE: 7/ 1/2024 / Origin: Program Fullerene / C70 from database
 C            1.68823634       -0.03464517        4.43780522
 C            0.83693972       -1.20622256        4.44555157
 C            1.21090559       -2.05310622        3.32344915
 C            2.58126722       -0.14796572        3.29991973
 C            2.24195588       -1.35409368        2.57602593
 C            2.52383493        1.10519448        2.57924879
 C            0.83236470        1.11577931        4.20330873
 C            1.41120335        1.86459944        3.11571258
 C           -0.53532652       -0.74137728        4.51090428
 C           -0.52356160        0.63652489        4.04486421
 C           -1.50473151       -1.58384862        4.00492175
 C            0.18644177       -2.70190448        2.63577572
 C           -1.05945615       -2.74946413        3.26146823
 C            0.25516865       -2.81122275        1.23730753
 C            2.12872541       -1.27570605        1.19750823
 C            1.28762818       -2.16234368        0.53660196
 C            2.65145274        1.08675456        1.19419926
 C            2.59001885       -0.13946237        0.52393570
 C            2.23232922        2.22286436        0.50617338
 C            0.57168377        2.45967880        2.19015273
 C            1.18670483        2.97376324        1.06090670
 C           -1.22740554        0.97619048        2.88424261
 C           -0.74601414        1.99434025        2.04930116
 C           -2.54929934       -1.00583312        3.18768285
 C           -2.24682559        0.12828002        2.42989311
 C           -2.21159891       -3.20992885        2.51997373
 C           -3.20218165       -2.13993589        2.56796209
 C           -0.78962390       -3.43334821        0.53388043
 C           -2.03998858       -3.57202012        1.13346217
 C           -0.74633760       -3.47231851       -0.85576816
 C            1.36034882       -2.23128604       -0.85216181
 C            0.43867185       -3.00653820       -1.54585976
 C            2.56259349       -0.13392919       -0.87166330
 C            2.10353933       -1.27236718       -1.54816277
 C            2.46989348        2.28394357       -0.86522860
 C            2.69434748        1.08480589       -1.55204121
 C            2.06711761        3.42746049       -1.55650859
 C            0.39294247        3.74003923        0.22862297
 C            0.92354243        4.14954363       -1.05203483
 C           -1.41605927        2.24488971        0.84680288
 C           -0.96341758        3.27586673        0.02659167
 C           -2.71227703        0.24788363        1.10935242
 C           -2.15661138        1.21409614        0.27625257
 C           -3.74434542       -1.98587993        1.23931889
 C           -3.20044963       -3.05993081        0.43005849
 C           -3.48863171       -0.75273734        0.52677192
 C           -1.90017849       -2.98960826       -1.61005626
 C           -3.00361158       -2.54093384       -0.90803080
 C           -3.23853577       -1.10510886       -0.85995137
 C           -0.00498399       -2.56640597       -2.85527225
 C           -1.37999486       -2.15358479       -2.66974202
 C            2.04214368       -1.27268095       -2.94090926
 C            0.81675243       -1.72253148       -3.57189618
 C            2.84660762        1.08739781       -2.93719152
 C            2.46133043       -0.09344089       -3.67778324
 C            1.90441120        3.38794497       -2.99437851
 C            2.35313974        2.21322632       -3.70620553
 C           -0.13864492        3.98582634       -2.02903875
 C           -1.14643801        3.15188013       -1.40748054
 C            0.47732268        3.53159795       -3.25455040
 C           -2.08789718        0.98262586       -1.10596719
 C           -2.43258819       -0.26176653       -1.62219831
 C           -1.67299851       -0.78862473       -2.66919659
 C           -1.43550946        1.89369249       -1.92923308
 C            0.22004519       -0.51998451       -4.10838033
 C            1.34171339        0.28990039       -4.53108290
 C            1.21412109        1.72544727       -4.46467504
 C            0.03590641        2.27820181       -3.82902275
 C           -0.83879762        0.06170599       -3.40247553
 C           -0.79903034        1.43014076       -3.09176396
