   70
C70 / DATE: 7/ 1/2024 / Origin: Program Fullerene / C70 from database
 C            1.59412932        0.05546597        4.59746793
 C            0.79140699       -1.14934472        4.50608803
 C            1.26514737       -1.92792504        3.37437830
 C            2.60757079       -0.01669808        3.56460172
 C            2.47314561       -1.29111133        2.88206937
 C            2.51431747        1.18705043        2.75813103
 C            0.72995395        1.17980896        4.28261447
 C            1.27148990        1.84425551        3.11878472
 C           -0.59571157       -0.74251192        4.51595383
 C           -0.62630655        0.68624551        4.21583334
 C           -1.50762557       -1.56023916        3.87001269
 C            0.33396546       -2.41999149        2.45978251
 C           -1.01801203       -2.45035898        2.81965868
 C            0.68900560       -2.52559616        1.10912804
 C            2.72571353       -1.30521473        1.51958973
 C            1.97021854       -2.13733980        0.69515496
 C            2.82724663        1.07400735        1.40674363
 C            3.28309356       -0.16236279        0.95794183
 C            2.18444426        1.91139931        0.48804623
 C            0.41858180        2.21947347        2.09197122
 C            0.99168223        2.53472324        0.86600447
 C           -1.47028107        1.14466475        3.20394195
 C           -0.95153396        1.91314725        2.14909481
 C           -2.71924253       -0.94240252        3.37459905
 C           -2.66542675        0.46332934        3.01543279
 C           -2.03134359       -2.50377159        1.77730635
 C           -3.13808812       -1.67958173        2.19878510
 C           -0.30542502       -2.75762258        0.15684702
 C           -1.62557273       -2.44461635        0.45178439
 C            0.04542965       -2.97379540       -1.16258680
 C            2.32088152       -2.21045039       -0.65761836
 C            1.41404774       -2.73617669       -1.57647332
 C            3.74493525       -0.24881095       -0.34072366
 C            3.38204592       -1.42498096       -1.10853660
 C            2.52687223        1.79982316       -0.86692521
 C            3.52866714        0.88867124       -1.20950846
 C            1.69531243        2.34875119       -1.85669507
 C            0.20498847        3.15892900       -0.08199239
 C            0.56081599        3.05726524       -1.48252132
 C           -1.77074091        2.25244748        1.05904886
 C           -1.23670200        3.04041900        0.03595982
 C           -3.38092509        0.61236917        1.76776397
 C           -3.65732119       -0.72201190        1.25426187
 C           -2.99035943        1.59021505        0.85951401
 C           -2.41589144       -1.79108387       -0.50923680
 C           -3.45674891       -0.93473701       -0.10137771
 C           -0.83816441       -2.48438471       -2.20577700
 C           -2.01152338       -1.82053968       -1.85593506
 C            1.37891971       -2.24179858       -2.94706461
 C           -0.00991851       -1.95269949       -3.28020485
 C            3.47080283       -1.05394771       -2.51070704
 C            3.64192899        0.39151646       -2.56569898
 C            2.38848800       -1.40887268       -3.40700956
 C            1.75373889        1.88846374       -3.17133791
 C            2.74339747        0.90777322       -3.56771612
 C            2.03345318       -0.21884715       -4.15493060
 C           -0.35934662       -0.74507829       -3.89005307
 C            0.51627956        1.54390112       -3.84755048
 C            0.63487354        0.15484571       -4.26522246
 C           -0.66700683        2.88212428       -2.24489869
 C           -1.78220386        2.96354623       -1.30886231
 C           -0.69192440        1.97904356       -3.31217001
 C           -3.50402171        1.46821244       -0.43207607
 C           -3.80463896        0.13121986       -0.91576765
 C           -2.92501476        2.21676274       -1.53132238
 C           -2.53775314       -0.90995440       -2.76855348
 C           -1.64413371       -0.24721498       -3.70337631
 C           -1.81739009        1.18701248       -3.52370979
 C           -3.49365087        0.07684908       -2.32087287
 C           -3.00704178        1.38834126       -2.71928373
