   70
C70 / DATE: 7/ 1/2024 / Origin: Program Fullerene / C70 from database
 C            1.59432096       -0.01674898        4.46574645
 C            0.76732260       -1.20129163        4.37777692
 C            1.27798644       -2.03528291        3.30171086
 C            2.59777325       -0.10623051        3.42152194
 C            2.34839343       -1.30431175        2.64700915
 C            2.59519353        1.15541888        2.71980174
 C            0.74812379        1.12489937        4.15869942
 C            1.41355962        1.88834527        3.13010572
 C           -0.61255881       -0.76282759        4.29764946
 C           -0.58339653        0.63076927        3.88197206
 C           -1.50569282       -1.60835247        3.66820868
 C            0.35601172       -2.71551809        2.51756114
 C           -0.96874192       -2.75498410        2.95512122
 C            0.62455955       -2.89760283        1.15917183
 C            2.34981425       -1.20281517        1.25842683
 C            1.53600809       -2.05232950        0.50992619
 C            2.87586450        1.15943001        1.36319595
 C            2.86967227       -0.05267587        0.65750821
 C            2.54514485        2.31467811        0.66593420
 C            0.65763231        2.46456300        2.11802438
 C            1.36439007        2.97138029        1.03021198
 C           -1.20564878        1.00250980        2.68746592
 C           -0.66072005        2.02809896        1.90488569
 C           -2.49200872       -1.02971908        2.78021084
 C           -2.21453390        0.18974256        2.16075156
 C           -2.00582021       -3.19694962        2.04237714
 C           -3.00581893       -2.13153882        1.99020047
 C           -0.25529601       -3.67085467        0.40629138
 C           -1.62311017       -3.84042493        0.87405209
 C           -0.29316774       -3.50944504       -1.03342450
 C            1.51474730       -1.92519110       -0.88296202
 C            0.50183733       -2.53913310       -1.62538978
 C            2.99098112       -0.00694799       -0.73369506
 C            2.31587995       -0.96284894       -1.50960844
 C            3.04578858        2.43151551       -0.62061280
 C            3.40097198        1.20349685       -1.30167122
 C            2.39647106        3.30321045       -1.58208895
 C            0.65295338        3.70345717        0.09062089
 C            1.19290231        3.90304634       -1.24319623
 C           -1.30864555        2.39884071        0.72427269
 C           -0.76797260        3.44107049       -0.02709535
 C           -2.73118602        0.45240865        0.88614674
 C           -2.20910298        1.50680067        0.12903720
 C           -3.64645512       -1.84435870        0.79604948
 C           -3.53328978       -0.50183955        0.24897882
 C           -2.50406571       -3.79003917       -0.27689958
 C           -1.68067685       -3.60742708       -1.45855463
 C           -3.55223905       -2.78821347       -0.30461710
 C           -3.46388022       -0.62008515       -1.19653401
 C           -2.23939490       -2.51259860       -2.23529981
 C           -3.40961099       -2.02733046       -1.53306832
 C           -0.00269749       -1.88143444       -2.74249497
 C           -1.35850499       -1.58041126       -2.77048263
 C            2.14443363       -0.77034906       -2.88358550
 C            0.85253958       -1.07191966       -3.46326024
 C            3.26659522        1.44090670       -2.72332811
 C            2.55133067        2.69675240       -2.89605497
 C            2.61133545        0.44111775       -3.52769428
 C            0.32711312        0.17593175       -3.98519824
 C            1.37345607        2.43224629       -3.70749451
 C            1.46179147        1.06288013       -4.17202111
 C            0.08393529        3.85172633       -2.17980817
 C           -1.12403871        3.56602507       -1.42402523
 C            0.14177368        2.92951655       -3.30253604
 C           -2.35471734        1.46947629       -1.26563982
 C           -2.63386818        0.25724743       -1.87284842
 C           -1.73276152       -0.23436517       -2.82341150
 C           -0.86984405        0.66657695       -3.46142761
 C           -1.79346587        2.45515426       -2.05718014
 C           -1.00567593        2.03515621       -3.20341596
