   70
C70 / DATE: 7/ 1/2024 / Origin: Program Fullerene / C70 from database
 C            1.54016874       -0.00416675        4.77779693
 C            0.75959039       -1.21155755        4.57811772
 C            1.46521096       -2.05226272        3.62403533
 C            2.69320374       -0.07574545        3.90066071
 C            2.73310110       -1.40581030        3.32264094
 C            2.65350141        1.06632755        3.00110510
 C            0.72865843        1.11687669        4.34390644
 C            1.44057934        1.81046490        3.28219570
 C           -0.60424447       -0.81551769        4.27559270
 C           -0.60787278        0.62267696        4.05800195
 C           -1.34033342       -1.61812796        3.41980178
 C            0.73726636       -2.66005047        2.60049079
 C           -0.65673133       -2.67419851        2.69086646
 C            1.36243483       -2.95595233        1.38245366
 C            3.26354720       -1.54011384        2.05124023
 C            2.63322311       -2.45247045        1.11485493
 C            3.02851984        0.88194640        1.67527648
 C            3.59677628       -0.33800733        1.30433962
 C            2.47408675        1.70282219        0.69003613
 C            0.69680295        2.30090158        2.21625916
 C            1.27962756        2.38477930        0.94776815
 C           -1.26639929        1.14780528        2.94934712
 C           -0.69030811        2.24362376        2.31014103
 C           -2.27010480       -0.99671557        2.49215910
 C           -2.18849186        0.36594874        2.24334006
 C           -1.45865349       -2.96818738        1.51907841
 C           -2.43491431       -1.89793577        1.36939707
 C            0.61522725       -3.45309369        0.31668132
 C           -0.83584436       -3.46815597        0.39018950
 C            0.98956453       -3.08793573       -1.04375820
 C            2.94158347       -1.98052547       -0.22878409
 C            3.63947258       -0.71078815       -0.09747485
 C            2.00109655       -2.15951957       -1.24372134
 C            2.91290210        1.55742165       -0.62100170
 C            3.42834484        0.26700720       -1.05039147
 C            2.11308300        2.08792883       -1.71060689
 C            0.52198286        2.91852117       -0.10416170
 C            0.87186786        2.65263977       -1.43615412
 C           -1.43516860        2.90546440        1.35238605
 C           -0.73764900        3.43028246        0.19593089
 C           -2.72385442        0.86802193        1.05623469
 C           -2.61642205        2.23818337        0.84951983
 C           -2.67596428       -1.36967662        0.10359697
 C           -2.90225854        0.00767983       -0.04239423
 C           -1.34683375       -3.09305864       -0.91402217
 C           -0.22232126       -3.00378770       -1.83079072
 C           -2.36104921       -2.14464773       -1.01450824
 C           -0.30794862       -2.09762714       -2.87980859
 C            1.86508504       -1.19713220       -2.24990547
 C            2.71232244       -0.08829409       -2.25631236
 C            2.24156083        1.15893915       -2.82092291
 C            0.75893796       -1.21470658       -3.11256775
 C            1.23258533        1.10742282       -3.76121341
 C            0.62451713       -0.17987407       -4.04516735
 C           -0.08104278        2.73206845       -2.46470787
 C            0.14906246        2.06695322       -3.66882607
 C           -1.72444135        3.57056943       -0.85147300
 C           -2.89297104        2.79467317       -0.45353924
 C           -1.37487901        3.16701786       -2.19406412
 C           -3.23583031        0.52100690       -1.30619261
 C           -3.20426497        1.89444732       -1.53862938
 C           -2.50019876        2.40116872       -2.70447350
 C           -2.63361145       -1.64538568       -2.27894427
 C           -1.59569415       -1.75503399       -3.28968167
 C           -3.21949292       -0.32746725       -2.40878790
 C           -0.66505610        0.09830739       -4.65115687
 C           -0.97913942        1.49508138       -4.38777919
 C           -2.30123652        1.55569326       -3.78617245
 C           -1.80225143       -0.69554626       -4.25189690
 C           -2.81201707        0.19840357       -3.70545033
