   70
C70 / DATE: 7/ 1/2024 / Origin: Program Fullerene / C70 from database
 C            1.48629140       -0.31579815        5.07757427
 C            0.61735194       -1.46747366        4.94427736
 C            1.18952068       -2.32927563        3.92710556
 C            2.57342028       -0.46860537        4.12406097
 C            2.32055977       -1.64752733        3.32953289
 C            2.70626971        0.78444338        3.42846156
 C            0.72804612        0.85688078        4.67748213
 C            1.56496462        1.61848405        3.78058811
 C           -0.66308585       -1.00289874        4.43599477
 C           -0.55646862        0.41862899        4.17955018
 C            0.11075861       -2.71945327        3.05019199
 C           -1.02869596       -1.86465391        3.32773076
 C            0.39761205       -2.93257637        1.71633913
 C            2.36398555       -1.54719375        1.93781388
 C            1.59595640       -2.43757926        1.18664516
 C            3.08650388        0.77743578        2.09380507
 C            2.84873489       -0.38095247        1.32318255
 C            3.00347370        2.01383694        1.47387699
 C            0.96747310        2.33482694        2.74778304
 C            1.83944458        2.82578621        1.78535779
 C           -0.97775794        0.89013567        2.94168275
 C           -0.33344257        1.98535334        2.35101760
 C           -1.68583590       -1.30794550        2.22933974
 C           -1.80452970        0.08404870        2.15486984
 C           -0.68853623       -2.99793145        0.86144441
 C           -1.69056293       -2.03947132        1.03529099
 C           -0.43689608       -3.50110469       -0.39860063
 C            1.74682666       -2.46248720       -0.19824567
 C            0.91389577       -3.33408753       -0.89712770
 C            2.83102870       -0.30027295       -0.08356775
 C            2.22537500       -1.31272016       -0.83992765
 C            3.25106956        2.10765225        0.05982038
 C            3.15683635        0.89798091       -0.72028358
 C            1.31383186        3.33233770        0.53838016
 C            2.30041840        3.06151635       -0.48640550
 C           -0.85388709        2.47902136        1.15064998
 C           -0.01956184        3.12092866        0.22928467
 C           -2.38948673        0.64345275        1.02474556
 C           -2.06709720        1.96200291        0.69626129
 C           -2.32774632       -1.48708992       -0.08071585
 C           -2.87470129       -0.21231742        0.03473262
 C           -1.33471717       -3.17324625       -1.48061696
 C           -2.16118909       -2.06103113       -1.34831712
 C            0.83533297       -3.24991408       -2.33759279
 C           -0.57033662       -3.35927608       -2.69771187
 C            1.87703745       -1.05214686       -2.17718530
 C            1.35408437       -2.06390399       -2.97513013
 C            2.47772504        1.24926502       -1.95387241
 C            1.83596300        2.53649708       -1.75457747
 C            1.76686482        0.26552473       -2.61825480
 C           -0.39864180        3.14974449       -1.11174127
 C            0.48727866        2.64902124       -2.07644168
 C           -2.64489150        2.53515154       -0.43190220
 C           -1.75893189        3.17214522       -1.39010915
 C           -3.59193953        0.31832903       -1.02700565
 C           -3.61631263        1.75974376       -1.17836264
 C           -2.59782496       -1.37798248       -2.49255310
 C           -3.42832447       -0.27008434       -2.34466574
 C           -0.80677405       -2.46010874       -3.80163654
 C            0.42058685       -1.70912632       -4.03060964
 C           -1.87815276       -1.49153892       -3.68634280
 C            0.66665485        0.64145500       -3.39286572
 C           -0.00434414        1.83228989       -3.09597664
 C            0.04654543       -0.31335906       -4.19189989
 C           -1.39756684       -0.28310255       -4.33087374
 C           -2.20495428        2.81011285       -2.72126320
 C           -3.44813034        2.07235488       -2.58494748
 C           -3.29194015        0.81961729       -3.29838734
 C           -1.30806554        2.02735046       -3.54780616
 C           -2.06639304        0.90088070       -4.07135033
