   70
C70 / DATE: 7/ 1/2024 / Origin: Program Fullerene / C70 from database
 C            1.55667739        0.09111789        5.01370587
 C            0.76815856       -1.12635753        5.01461725
 C            1.52221489       -2.13714231        4.29678770
 C            2.66213755       -0.10127666        4.08935944
 C            2.65858539       -1.48321707        3.66698657
 C            2.56331803        0.92315934        3.07226396
 C            0.72377578        1.15781921        4.48476074
 C            1.45234891        1.79352168        3.40624450
 C           -0.57029136       -0.79420755        4.55294167
 C           -0.58191125        0.61087504        4.17724788
 C           -1.25230242       -1.70083910        3.75551907
 C            0.84166736       -2.91126033        3.27626063
 C           -0.54284887       -2.84435819        3.19003997
 C            2.60261020       -1.77377851        2.24457243
 C            1.61902716       -2.81835485        2.04798927
 C            2.73303595        0.59362382        1.73187920
 C            2.66004193       -0.74147711        1.31303388
 C            2.39978712        1.56950972        0.80568139
 C            0.72724771        2.32171002        2.34384219
 C            1.39408347        2.48427630        1.13231801
 C           -1.18066107        1.00258783        2.98028324
 C           -0.65049552        2.10269043        2.30253835
 C           -2.14448920       -1.19390681        2.72708817
 C           -2.01639662        0.11514109        2.29011694
 C           -1.16029445       -3.13941270        1.91420821
 C           -2.28815462       -2.23826529        1.74052929
 C            0.95427854       -2.88832824        0.82494653
 C           -0.35124874       -3.38411243        0.80963663
 C            2.25050716       -1.01035341        0.00282851
 C            1.39754409       -2.09180391       -0.24377209
 C            2.62424898        1.29319081       -0.52933881
 C            2.39333351       -0.01453753       -0.96229795
 C            2.45940379        2.34389834       -1.41317988
 C            0.74847465        3.17421104        0.10400504
 C            1.38820960        3.27959818       -1.12900555
 C           -1.36214920        2.61328272        1.22531900
 C           -0.63839938        3.27999935        0.15292339
 C           -2.46849910        0.44761178        1.01143425
 C           -2.37474722        1.77330390        0.61182563
 C           -2.64106779       -1.91096400        0.43693439
 C           -2.69320902       -0.55704293        0.05489132
 C           -0.99798472       -3.48704027       -0.41005497
 C           -2.30436361       -2.86088174       -0.51737275
 C            0.78581093       -2.22637029       -1.49588120
 C           -0.27910613       -3.11644462       -1.60908987
 C            1.94393405       -0.24838198       -2.26430117
 C            1.00533178       -1.26302077       -2.49602860
 C            2.45516547        2.06717766       -2.83045507
 C            2.21007693        0.70380169       -3.24657663
 C            0.59416527        3.39609989       -2.34224440
 C            1.42573963        2.89878286       -3.42833332
 C           -1.41535778        3.10928371       -1.06408645
 C           -2.43689888        2.10777737       -0.79470844
 C           -0.77130351        3.10247311       -2.29730559
 C           -2.83157236       -0.21591276       -1.30728265
 C           -2.66450745        1.10964592       -1.73049934
 C           -2.52869811       -2.57143260       -1.90859454
 C           -1.29329469       -2.88722039       -2.61216295
 C           -2.89033621       -1.22166622       -2.27279874
 C            0.16189236       -1.21120750       -3.62531696
 C           -1.07757124       -1.83464309       -3.56990328
 C           -2.26583534       -0.99689352       -3.55873839
 C            1.36256100        0.77554245       -4.41420422
 C            0.81923558        2.12729356       -4.48944371
 C            0.25876673       -0.14816439       -4.51654033
 C           -1.39036417        2.43850937       -3.35821923
 C           -2.35644849        1.38793727       -3.06489482
 C           -2.13720875        0.30348321       -4.01111985
 C           -0.62298528        2.02117585       -4.52033239
 C           -0.94239492        0.63016419       -4.77147640
