   70
C70 / DATE: 7/ 1/2024 / Origin: Program Fullerene / C70 from database
 C            1.31265593        0.00927999        4.72834705
 C            2.53258506       -0.15081334        3.96560879
 C            2.50900007       -1.47151861        3.36008075
 C            0.46071665       -1.13670578        4.45273776
 C            1.20083727       -2.05232259        3.60051514
 C           -0.81968729       -0.63999565        3.97803160
 C            0.52130030        1.20332894        4.52353136
 C           -0.83195540        0.78992769        4.17912829
 C            0.94022501        2.17555920        3.52743343
 C            2.84706900        0.80553831        2.91810053
 C            2.08792768        1.96614077        2.75682428
 C            2.96034449       -1.34573121        1.98290030
 C            3.24831825        0.05498587        1.73687695
 C            2.30126565       -2.07253450        1.00036822
 C            0.54188000       -2.63289856        2.52370307
 C            1.28786719       -2.94611919        1.38891343
 C           -1.32625644       -1.16551348        2.79492784
 C           -0.82296849       -2.38810001        2.36882792
 C           -1.96553551       -0.33558819        1.86080428
 C           -1.28509178        1.63257095        3.09402487
 C           -0.27173463        2.64619983        2.87784963
 C           -1.88377612        1.05853626        1.97732387
 C           -0.18152094        3.20886215        1.61439501
 C            2.20575385        2.65636167        1.55464125
 C            1.08278223        3.44687881        1.08205892
 C            2.98927984        0.59514368        0.48112170
 C            2.75480192        1.96443876        0.39751200
 C            2.31294344       -1.59762643       -0.30984312
 C            2.54585711       -0.23690341       -0.55197812
 C            1.79240442       -2.40542562       -1.32277449
 C            0.69248151       -3.74442985        0.42279366
 C            1.00525058       -3.50602249       -0.97680625
 C           -1.50034929       -3.05699479        1.36303451
 C           -0.73911251       -3.95782456        0.51946035
 C           -2.43784287       -0.89967500        0.66651344
 C           -2.37926763       -2.28335784        0.50286626
 C           -2.66038300       -0.08607752       -0.45114251
 C           -1.99773359        1.84180402        0.83207342
 C           -1.24222708        3.01937244        0.73341403
 C           -2.60547116        1.30298950       -0.30045774
 C           -1.19289682        3.69834803       -0.47691087
 C            1.23077640        3.57923899       -0.35972040
 C            2.12235901        2.51550871       -0.79030071
 C            0.10179088        3.84087024       -1.11889471
 C            2.15352105        0.32948820       -1.76698025
 C            1.72048803        1.65199818       -1.80420176
 C            1.74449185       -1.91961507       -2.62591188
 C            1.89339898       -0.49349025       -2.85015338
 C            0.70475609       -2.40168393       -3.51622097
 C           -0.19096600       -3.81486436       -1.75194716
 C           -1.29534338       -3.89486279       -0.81655836
 C           -2.29188584       -2.83954911       -0.83588811
 C           -0.40199045       -3.14309001       -2.94513560
 C           -2.74076774       -0.66249168       -1.73077339
 C           -2.32071904       -1.97709716       -1.92177318
 C           -1.58553456       -2.30292084       -3.06663021
 C           -2.86503798        0.14587193       -2.85557080
 C           -2.90445094        2.13985070       -1.37010716
 C           -2.15573257        3.37035821       -1.50789157
 C           -3.02003648        1.57651742       -2.69597259
 C           -0.01999826        3.20689589       -2.41733264
 C            0.67806333        2.02262961       -2.66310294
 C           -1.42442652        3.28923930       -2.76164372
 C           -2.00795298        2.21420148       -3.52892110
 C            0.89682777       -0.07697906       -3.82199033
 C            0.15630162       -1.26053332       -4.22783133
 C           -1.28509552       -1.27242240       -4.04880961
 C           -1.93716110       -0.05403904       -3.95285527
 C            0.19660340        1.10873126       -3.61096630
 C           -1.14201596        1.15815066       -4.01274542
