   70
C70 / DATE: 7/ 1/2024 / Origin: Program Fullerene / C70 from database
 C            1.52060912        0.01230632        4.62119303
 C            0.72473204       -1.19177703        4.49233794
 C            1.21048027       -1.93963959        3.34546951
 C            2.57003751       -0.05234137        3.62532154
 C            2.41153883       -1.27455184        2.86620922
 C            2.53841627        1.18847959        2.88999528
 C            0.66436111        1.13855380        4.27968971
 C            1.25739795        1.81858605        3.15237269
 C           -0.66025454       -0.78233942        4.48909651
 C           -0.67831127        0.63521087        4.13976270
 C           -1.56483408       -1.60957874        3.84829798
 C            0.27992894       -2.42255815        2.42230642
 C           -1.06059066       -2.50012106        2.80431569
 C            0.61532883       -2.44596509        1.06286707
 C            2.63500045       -1.21714122        1.49816798
 C            1.90178767       -2.06179141        0.67642228
 C            2.95109131        1.17091768        1.57310901
 C            3.18958455       -0.05616948        0.94609211
 C            2.49443047        2.20154123        0.77853541
 C            0.46689629        2.17237359        2.05505052
 C            1.13938649        2.54351679        0.88662895
 C           -1.45782293        1.05136772        3.06083092
 C           -0.85888565        1.70956843        1.96745837
 C           -2.76151129       -0.98923688        3.32543737
 C           -2.66544977        0.39014033        2.88095843
 C           -2.08841629       -2.61085330        1.78536263
 C           -3.19947879       -1.78311486        2.19749229
 C           -0.37769489       -2.64599019        0.09070986
 C           -1.72779983       -2.57892613        0.44616911
 C           -0.02855647       -2.73587734       -1.26285275
 C            2.28110530       -2.16568762       -0.64985023
 C            1.29129689       -2.52048183       -1.64698734
 C            3.50167317       -0.03914422       -0.42053743
 C            3.14391141       -1.13707211       -1.21021086
 C            3.15909544        2.38262310       -0.41747970
 C            3.73518787        1.19793561       -1.03009058
 C            2.51976354        3.15886036       -1.44945949
 C            0.40330228        2.84079652       -0.26239327
 C            1.07565051        3.25631190       -1.41583342
 C           -1.55669933        1.83530008        0.75034437
 C           -0.90582419        2.36647004       -0.37494805
 C           -3.34799596        0.47955071        1.61342886
 C           -3.74326933       -0.86767903        1.22176200
 C           -2.86079754        1.32908169        0.62796646
 C           -2.66582864       -2.14304519       -0.49330391
 C           -3.62793409       -1.18836553       -0.12168150
 C           -1.01892336       -2.61532335       -2.23837701
 C           -2.39293463       -2.36605636       -1.83914344
 C           -0.74394943       -1.81221075       -3.42336692
 C            1.55496186       -1.72811019       -2.83745209
 C            2.76099504       -0.95400227       -2.60594194
 C            0.47963044       -1.15570990       -3.50839152
 C            3.58549332        1.33272462       -2.46751130
 C            2.91770038        2.59664234       -2.72808290
 C            2.88163437        0.29513506       -3.19331409
 C            0.58415526        2.82078479       -2.71129194
 C            0.49310906        0.21944756       -3.77224833
 C            1.70861790        2.30812952       -3.47121530
 C            1.70949163        0.89661236       -3.81228902
 C           -1.44963303        2.19425958       -1.65197159
 C           -0.59526826        2.10149885       -2.74340406
 C           -0.66676649        0.96926721       -3.55507895
 C           -3.41681966        1.17129500       -0.63888794
 C           -3.90811397       -0.14865953       -0.99659042
 C           -2.73616769        1.70561121       -1.79535734
 C           -2.99994253       -1.51682042       -2.84960237
 C           -1.95227969       -1.08468533       -3.75783630
 C           -1.90302860        0.36270515       -3.73026575
 C           -3.71858282       -0.34000516       -2.41616911
 C           -3.01741806        0.82742626       -2.92174410
