   70
C70 / DATE: 7/ 1/2024 / Origin: Program Fullerene / C70 from database
 C            1.06593530       -0.06467760        4.90286488
 C            2.41638161       -0.38323138        4.49638048
 C            2.36292252       -1.65006346        3.77400253
 C            0.26202567       -1.24980531        4.66367436
 C            0.96990287       -2.04027843        3.67798428
 C           -1.06787394       -0.79057912        4.34294393
 C            0.38120405        1.03630564        4.24501653
 C           -1.01058448        0.66190768        4.22029087
 C            0.95278826        1.62670476        3.11391825
 C            3.10855850        0.56600306        3.65137657
 C            2.33771094        1.60446048        2.98254488
 C            3.12243632       -1.48849864        2.55001628
 C            3.77420484       -0.20015921        2.61595198
 C            2.54779503       -1.85028649        1.33787444
 C            0.40929965       -2.22440319        2.41292896
 C            1.25086393       -2.37863125        1.30874460
 C           -1.69702129       -1.28148206        3.13370129
 C           -0.96047611       -2.01509982        2.20690192
 C           -1.79421356        1.01771502        3.06319331
 C           -2.48699059       -0.18135747        2.63987851
 C            0.15460122        1.97037212        2.00549617
 C           -1.23980203        1.81909516        2.06933891
 C            0.75676593        2.36266623        0.79239872
 C            2.92343557        1.77080765        1.67364196
 C            3.76557085        0.60858440        1.41586877
 C            2.14577251        2.24951812        0.62802683
 C            3.08751907       -1.31946835        0.16549231
 C            3.62256745       -0.02374392        0.18493251
 C            2.69876517       -1.89121929       -1.04031788
 C            0.70060547       -2.74862912        0.08141252
 C            1.52571902       -2.74488101       -1.04140888
 C           -1.46722794       -2.11042105        0.90903231
 C           -0.68629385       -2.70498230       -0.07981513
 C           -2.89705215       -0.21599662        1.32319287
 C           -2.56951855       -1.32265980        0.54141548
 C           -1.98336475        1.93750228        0.89835236
 C           -3.00042754        1.00181876        0.67921934
 C           -0.04838409        2.67405946       -0.32033557
 C           -1.44160539        2.62232651       -0.18431117
 C            0.53193779        2.77359293       -1.59857770
 C            2.65149530        2.04076952       -0.64643533
 C            3.38883235        0.81505799       -0.89734960
 C            1.81636155        2.29762420       -1.78954458
 C            2.65115568       -1.08105815       -2.24708092
 C            2.93491425        0.26752558       -2.16235251
 C            2.01736912        1.22522244       -2.75165242
 C            0.94247304       -2.68086358       -2.36717245
 C            1.50978885       -1.51603557       -3.03160481
 C           -1.25175881       -2.94416871       -1.32957471
 C           -0.40809875       -2.94390580       -2.51521362
 C           -3.02406921       -1.34207112       -0.78362362
 C           -2.49806696       -2.28019799       -1.66858999
 C           -3.69001655        1.01024287       -0.51730766
 C           -3.70818069       -0.22446266       -1.28403228
 C           -2.27005841        2.89680226       -1.27253412
 C           -3.47885386        2.11170605       -1.42922502
 C           -0.27644234        2.78516003       -2.72703869
 C           -1.68609840        3.04319633       -2.58519541
 C            0.92164211        0.79354924       -3.49846149
 C            0.66004499       -0.57927701       -3.62543180
 C           -0.10256068        1.71947561       -3.70386589
 C           -1.12709888       -2.25804041       -3.57206328
 C           -2.46875105       -1.98490155       -3.09110142
 C           -0.58047287       -1.01595660       -4.09123892
 C           -3.60572586        0.13303561       -2.69246111
 C           -3.50753819        1.57999070       -2.78110792
 C           -2.39535770        2.16241726       -3.50241512
 C           -1.42052028        1.28094096       -4.12347592
 C           -2.83744324       -0.65559505       -3.53757726
 C           -1.68141775       -0.07906779       -4.21851570
