   70
C70 / DATE: 7/ 1/2024 / Origin: Program Fullerene / C70 from database
 C            1.46661123        0.26412139        5.03635247
 C            0.67706891       -0.93912486        4.84716634
 C            1.53313552       -1.91321849        4.21191972
 C            2.64410043        0.15118798        4.18990833
 C            2.72800324       -1.22064176        3.74769750
 C            2.56789157        1.19945864        3.18900619
 C            0.68655861        1.38318375        4.54491734
 C            1.51207858        2.10907283        3.60141447
 C           -0.55916619       -0.56950774        4.17751583
 C           -0.59344789        0.87944815        4.07708521
 C           -1.01136964       -1.32310011        3.09482542
 C            1.00211956       -2.64851998        3.08426836
 C           -0.33197996       -2.49241801        2.72109839
 C            2.85298203       -1.48475749        2.32770513
 C            1.99760599       -2.61203125        2.02789162
 C            2.69797538        0.88935165        1.83129957
 C            2.88870113       -0.43697741        1.41630342
 C            2.30046445        1.84552204        0.88853993
 C            0.86353479        2.83279494        2.61676519
 C            1.44640686        2.87061098        1.28980161
 C           -1.14881148        1.45719455        2.93890844
 C           -0.56218046        2.61126943        2.42247453
 C           -1.88896068       -0.72123723        2.18912794
 C           -1.93344575        0.67546911        2.09292674
 C           -2.50441938       -1.50419909        1.20996773
 C           -0.71498488       -3.13558075        1.55142096
 C           -1.91436340       -2.70902448        0.85780895
 C            1.55536211       -2.78559445        0.71919723
 C            0.30867818       -3.37322537        0.54495652
 C            2.69492658       -0.74641332        0.07671909
 C            2.02473745       -1.92545780       -0.27742206
 C            2.39262579        1.55261375       -0.47503385
 C            2.80117652        0.27413447       -0.85403466
 C            1.67142578        2.33802977       -1.38136294
 C            0.38882333        3.28735478        0.39046430
 C           -0.87058930        3.01500572        1.05985242
 C            0.50116244        2.96017944       -0.95070763
 C           -2.50875736        1.26618388        0.97006183
 C           -1.85597580        2.33775581        0.35334116
 C           -3.37618545       -0.90793236        0.30376083
 C           -3.45280563        0.53909782        0.25903033
 C           -3.40565701       -1.38937666       -1.07077635
 C           -1.73740432       -3.02513750       -0.55051044
 C           -0.32650857       -3.31700896       -0.75602355
 C           -2.42025929       -2.27553463       -1.50426174
 C            1.55927653       -2.07574198       -1.58942101
 C            0.33518461       -2.71722601       -1.81946679
 C            2.81795826       -0.07243587       -2.19763899
 C            2.13289223       -1.29050300       -2.58969939
 C            1.86619458        2.15387467       -2.74605671
 C            2.53092872        0.94567109       -3.18757247
 C            0.75253891        2.39699949       -3.64703394
 C           -0.66624771        2.79542454       -1.69527856
 C           -1.84784470        2.43236126       -1.04041796
 C           -0.56090856        2.63449514       -3.07430196
 C           -3.76805081        0.92788863       -1.10280699
 C           -3.80572658       -0.27781711       -1.91505627
 C           -2.89835745        1.87757769       -1.76474361
 C           -1.50247639        1.77321357       -3.76798435
 C           -3.06687468       -0.01468499       -3.13495726
 C           -2.65941762        1.38248918       -3.10894099
 C           -1.84531314       -2.12027460       -2.76808867
 C           -0.42538173       -2.38989410       -2.93782576
 C           -2.18512080       -0.97799735       -3.60658412
 C            1.39577544       -1.01130939       -3.81123994
 C            1.72165819        0.34013008       -4.23164529
 C            0.64654565        1.26050038       -4.54942716
 C           -0.72608503        0.78757085       -4.50344119
 C            0.09448387       -1.47592736       -3.93641897
 C           -0.98251583       -0.56740598       -4.31531949
