   70
C70 / DATE: 7/ 1/2024 / Origin: Program Fullerene / C70 from database
 C            1.27343976        0.08066278        4.74479900
 C            2.49710809        0.01982190        3.97405823
 C            2.53448021       -1.28215875        3.33394123
 C            0.45347028       -1.05779838        4.35215308
 C            1.19743353       -1.82664549        3.36964633
 C           -0.85597378       -0.55430811        3.98966044
 C            0.45566352        1.27090891        4.63884229
 C           -0.90557725        0.84937794        4.35220813
 C            0.79750643        2.27292113        3.64549573
 C            2.73397764        1.01618745        2.93918573
 C            1.78904098        2.00573390        2.69681957
 C            3.14340453       -1.10448276        2.03874304
 C            3.32253078        0.32329639        1.81324345
 C            2.68164467       -1.86001379        0.97206352
 C            0.58782451       -2.15251939        2.15948840
 C            1.37796618       -2.38202371        1.02527900
 C           -1.40559673       -0.93194843        2.77391536
 C           -0.77572515       -1.90928381        1.99780329
 C           -2.32312547       -0.07913924        2.16853510
 C           -1.45900773        1.79353119        3.38994040
 C           -0.46371780        2.83594741        3.20293809
 C           -2.13665901        1.29878189        2.27443699
 C           -0.47781675        3.54743296        2.01872671
 C            1.66270483        2.53416636        1.40997790
 C            0.72969552        3.54985609        1.21364199
 C            3.12485835        0.80658503        0.52034911
 C            2.19961693        1.84154791        0.30836132
 C            3.19597865       -1.50187280       -0.26009102
 C            3.39447420       -0.08414619       -0.51735638
 C            2.64502799       -2.09549605       -1.45165160
 C            0.75214074       -2.80864376       -0.15641772
 C            1.48862878       -2.85527847       -1.35083388
 C           -1.40544512       -2.34185004        0.83498202
 C           -0.64622486       -2.91971243       -0.18327532
 C           -3.07427034       -0.57586287        1.11901099
 C           -2.67673891       -1.84633722        0.54584450
 C           -3.39820849        0.30979011        0.01810797
 C           -2.23726209        2.09519101        1.12633636
 C           -1.56994898        3.31801834        1.09332486
 C           -2.75979559        1.54698206       -0.05513188
 C            0.32948467        3.90774768       -0.12845998
 C           -1.12496254        3.83822418       -0.17800591
 C            1.72091137        2.08879135       -0.99223248
 C            0.83954116        3.13080329       -1.23443392
 C            2.88357808        0.18146490       -1.84576454
 C            2.74319630       -1.10184316       -2.50638345
 C            1.89096925        1.13549434       -1.99351708
 C            1.88255511       -1.20751385       -3.58539160
 C            0.87604828       -3.23843598       -2.54025697
 C            1.12794300       -2.44106020       -3.73038424
 C           -1.29568726       -3.34413199       -1.34015910
 C           -0.52552212       -3.59158455       -2.53861307
 C           -3.17318487       -1.87744699       -0.81677250
 C           -3.54740494       -0.51411776       -1.17017645
 C           -2.52292451       -2.67945124       -1.74254767
 C           -3.18181602        0.00516072       -2.40085272
 C           -2.41470904        2.08558641       -1.30706532
 C           -1.48484227        3.11745425       -1.37617240
 C           -0.26719777        2.89579549       -2.13898509
 C           -2.56198796        1.31590776       -2.45893425
 C            0.92837337        0.99640742       -3.00387854
 C            0.97609163       -0.10392647       -3.86427361
 C           -0.22060968        1.79403883       -2.98648290
 C           -1.43689339        1.23656106       -3.37591908
 C           -0.15268542       -2.11509567       -4.32968464
 C           -1.16926100       -2.88438496       -3.63779517
 C           -2.32892283       -2.19649649       -3.09888782
 C           -2.52395666       -0.84708925       -3.38085951
 C           -0.26657251       -0.66793615       -4.36861058
 C           -1.46707448       -0.06614204       -4.01560175
