   70
C70 / DATE: 7/ 1/2024 / Origin: Program Fullerene / C70 from database
 C            1.32916652       -0.02257224        4.97584162
 C            0.55865775       -1.19221945        4.58890221
 C            1.44782769       -2.09054391        3.89277588
 C            2.61799905       -0.10387434        4.30990165
 C            2.71786239       -1.40493449        3.69470734
 C            2.74917283        1.06055785        3.46194392
 C            0.63961442        1.14992623        4.46376703
 C            1.54854485        1.86943001        3.60402595
 C           -0.63154682       -0.73289816        3.89855986
 C           -0.61247615        0.71685575        3.89752390
 C           -1.06150524       -1.37302852        2.73365902
 C            1.02899605       -2.60297718        2.60538497
 C           -0.25031470       -2.34020236        2.12263875
 C            3.03796275       -1.47729629        2.27991198
 C            2.14045034       -2.45049983        1.68973518
 C            3.29710035        0.94106889        2.18862739
 C            3.32414657       -0.31871085        1.55631717
 C            3.20619846        2.08186763        1.40094189
 C            1.05054496        2.49759001        2.46293103
 C            1.98778892        2.87101750        1.50173143
 C           -1.08492801        1.34659863        2.75867397
 C           -0.27576239        2.25984403        2.06093844
 C           -2.00292127       -0.70246935        1.94153998
 C           -2.08293690        0.68903205        2.05506451
 C           -2.48351819       -1.32904086        0.78611894
 C           -0.49598377       -2.64378383        0.78970733
 C           -1.76778808       -2.42047796        0.28957609
 C            1.85168550       -2.34535217        0.33675804
 C            0.57900297       -2.71110541       -0.10418371
 C            3.27035480       -0.39938551        0.15805408
 C            2.60712564       -1.47636685       -0.44621343
 C            3.57945586        2.01099987        0.00806964
 C            3.63010805        0.70657469       -0.60790329
 C            1.55184977        3.17893463        0.15286319
 C            2.62724475        2.81212383       -0.74414119
 C           -0.69883147        2.68712622        0.79324863
 C            0.24523124        2.88993071       -0.21143096
 C           -2.75529012        1.41563192        1.09223668
 C           -2.02555786        2.47917296        0.42941148
 C           -3.40272447       -0.65752382       -0.03167154
 C           -3.53710973        0.72004772        0.09438992
 C           -3.88111812       -1.26669227       -1.18939817
 C           -2.05560527       -2.93099407       -0.96516924
 C           -3.23564999       -2.47086030       -1.66325083
 C            0.32864320       -2.77345371       -1.47876143
 C           -0.96896832       -3.02145394       -1.92181675
 C            2.39455880       -1.48006537       -1.82238090
 C            1.22481949       -2.16620633       -2.35462186
 C            3.08913892        0.85857646       -1.94529003
 C            2.29813361        2.07737786       -1.94642072
 C            2.57429352       -0.25614402       -2.58517489
 C           -0.04222144        2.50516700       -1.52827638
 C            0.97218395        2.00274665       -2.35608290
 C           -2.38288235        2.43812845       -0.97864750
 C           -3.53157081        1.55095152       -1.09672820
 C           -1.37334554        2.39610177       -1.93716311
 C           -4.16953479       -0.44283840       -2.35423975
 C           -3.82094246        0.96822981       -2.32157736
 C           -2.87356169       -2.26635977       -3.05647769
 C           -1.42819896       -2.39811867       -3.15352781
 C           -3.50880255       -1.04435011       -3.50245914
 C            0.71014602       -1.37371834       -3.46205404
 C            1.40023838       -0.09641356       -3.42813992
 C            0.64846250        1.07142042       -3.33956541
 C           -0.65432458       -1.39232375       -3.73541176
 C           -1.65167683        1.86598689       -3.19497904
 C           -2.93850944        1.23259808       -3.44274821
 C           -2.68999546       -0.02760734       -4.12673807
 C           -0.63894345        1.06356251       -3.85323125
 C           -1.24966367       -0.21231522       -4.19060264
