   70
C70 / DATE: 7/ 1/2024 / Origin: Program Fullerene / C70 from database
 C            1.52647093       -0.12173236        5.15520853
 C            0.67474358       -1.28606179        5.22865080
 C            1.17426643       -2.24656060        4.26049563
 C            2.51992118       -0.37224041        4.12267046
 C            2.16981676       -1.59496303        3.43910478
 C            2.59648298        0.82070985        3.33043662
 C            0.70680330        0.98584241        4.69486646
 C            1.48283195        1.68129324        3.70616718
 C           -0.65199961       -0.88744076        4.78448827
 C           -0.57287060        0.46219649        4.27466597
 C            0.02355658       -2.77759984        3.58874682
 C           -1.10803141       -1.90919418        3.88139511
 C            0.15369076       -3.16413714        2.26862501
 C            1.97863498       -1.56742590        2.05062112
 C            1.10096482       -2.49156502        1.46583394
 C            2.84817292        0.70497135        1.97160710
 C            2.41794399       -0.45844264        1.30292202
 C            2.76107911        1.90412321        1.29453827
 C            0.82037789        2.30399801        2.66018030
 C            1.66586316        2.78008625        1.67841640
 C           -0.99657663        0.71529310        2.96598658
 C           -0.42050646        1.78200322        2.25075695
 C           -1.90048455       -1.54560026        2.79830409
 C           -1.77660847       -0.23946060        2.28652579
 C           -1.04885089       -3.50739528        1.68447730
 C           -2.14464949       -2.57808726        1.90409521
 C           -1.04758077       -3.87436238        0.29969835
 C            0.95573306       -2.50718952        0.06952234
 C            0.05970113       -3.40711832       -0.49959248
 C            2.15905227       -0.40822000       -0.08457234
 C            1.41215316       -1.42397937       -0.69661487
 C            2.81227768        1.90571021       -0.13960046
 C            2.51143711        0.73253808       -0.82190242
 C            1.10441420        3.30504671        0.46487001
 C            2.13747199        3.12564907       -0.53061613
 C           -0.90262352        2.07708291        0.96434318
 C           -0.19892092        2.96410908        0.13072831
 C           -2.19395290        0.04000871        0.97658918
 C           -1.93355096        1.29922585        0.43392242
 C           -2.71735367       -2.28322807        0.61448094
 C           -2.25914455       -3.32287576       -0.27621505
 C           -2.69762236       -0.97697799        0.15069876
 C           -0.49741650       -3.11836972       -1.79530406
 C           -1.93243414       -2.93766975       -1.62280218
 C            1.07523162       -1.32682334       -2.06351921
 C            0.14259023       -2.21835184       -2.62543281
 C            2.14460704        0.85063957       -2.16568030
 C            1.48495626       -0.20440943       -2.80523595
 C            1.77127679        3.24276141       -1.84762211
 C            2.10552986        2.13970982       -2.71675668
 C           -0.58814650        3.13945678       -1.20144620
 C            0.37861134        3.52693883       -2.13481954
 C           -2.47429732        1.62828217       -0.80447583
 C           -1.79585662        2.60350829       -1.63732453
 C           -2.83020482       -0.75255803       -1.22599086
 C           -2.48142904       -1.76933994       -2.13422163
 C           -2.95640632        0.56188669       -1.66472083
 C           -0.63307744       -1.77957523       -3.68833566
 C           -2.00883712       -1.41970179       -3.39266057
 C            1.05366961       -0.04988568       -4.13128785
 C           -0.09587748       -0.79372463       -4.58138819
 C            1.36138611        2.39935710       -3.92878865
 C            0.20663283        3.20370239       -3.54065466
 C            0.88376868        1.27673969       -4.68834515
 C           -1.96818808        2.20287614       -3.02898306
 C           -2.63978675        0.91029982       -3.04060335
 C           -2.22872635       -0.08826204       -3.91234735
 C           -1.15668297        0.16523119       -4.85939722
 C           -0.98124091        2.49492873       -3.96606556
 C           -0.54218615        1.47432355       -4.90131643
