   70
C70 / DATE: 7/ 1/2024 / Origin: Program Fullerene / C70 from database
 C            1.30856786        0.07785474        5.00561656
 C            0.55105199       -1.12486486        4.72421309
 C            1.42785488       -2.05832042        4.05333058
 C            2.59737102       -0.05416266        4.34730816
 C            2.66978137       -1.36840227        3.75007819
 C            2.75401286        1.08708797        3.47854532
 C            0.60731819        1.19723336        4.39195481
 C            1.54511266        1.89173054        3.55283492
 C           -0.66191507       -0.72688448        4.04090985
 C           -0.59716585        0.69858837        3.77528992
 C           -1.16653047       -1.52514359        3.02933788
 C            0.95490609       -2.66208650        2.82527820
 C           -0.38246677       -2.55094315        2.47771035
 C            2.89269413       -1.46600219        2.31522178
 C            1.92819055       -2.41082178        1.78228627
 C            3.31796431        0.92010171        2.22039527
 C            3.17952796       -0.32349787        1.57449084
 C            3.30658414        2.06155333        1.43509801
 C            1.10060791        2.46806682        2.36813350
 C            2.11045699        2.88866662        1.51443344
 C           -0.95307948        1.14517438        2.49800446
 C           -0.12262787        2.04666372        1.80612730
 C           -2.11301917       -0.93854503        2.20143786
 C           -1.87589406        0.37612011        1.78106676
 C           -2.81057377       -1.79776309        1.37257972
 C           -0.72980599       -2.98457939        1.20425837
 C           -2.08412513       -2.96216795        0.91405829
 C            1.45235411       -2.24422774        0.48077713
 C            0.18719338       -2.75153211        0.16472629
 C            2.95764406       -0.36645236        0.19259568
 C            2.00515031       -1.25005963       -0.33349151
 C            3.66763251        1.94527049        0.04302892
 C            3.44308105        0.66912120       -0.59414572
 C            1.77876560        3.31237550        0.17982789
 C            2.88809219        2.93062651       -0.67544367
 C           -0.41311742        2.35304403        0.46324994
 C            0.48925543        3.11792229       -0.29374065
 C           -2.25716143        0.77175883        0.49616398
 C           -1.53290817        1.77546112       -0.16116045
 C           -3.52061638       -1.26001857        0.23785126
 C           -3.22557493        0.02891320       -0.19170632
 C           -2.51463019       -3.25434447       -0.43038607
 C           -3.58663768       -2.32695391       -0.74335769
 C           -0.26340196       -2.66464492       -1.15802525
 C           -1.53460680       -3.14143838       -1.48240216
 C            1.46876235       -1.03682744       -1.61138192
 C            0.41697773       -1.84248267       -2.06156030
 C            2.83422522        0.93520099       -1.88311595
 C            2.57205930        2.36616799       -1.96758806
 C            1.87985571        0.05707801       -2.38535301
 C            0.31121786        3.22023595       -1.66836419
 C            1.38126788        2.76141407       -2.54924344
 C           -1.87606026        2.14688681       -1.46949206
 C           -0.94138540        2.80553167       -2.25778341
 C           -3.57906043        0.38354337       -1.48911255
 C           -2.93316194        1.51513368       -2.11598368
 C           -3.45962777       -1.97374540       -2.14039260
 C           -2.23431615       -2.60159913       -2.63311971
 C           -3.73699020       -0.66137367       -2.49711802
 C           -0.10596177       -1.63319993       -3.33965014
 C           -1.49309205       -1.97110379       -3.62053158
 C            1.06250864        0.50500694       -3.42466661
 C            0.76369390        1.86391323       -3.49929983
 C           -0.62387882        2.27336613       -3.57458633
 C            0.19545987       -0.39311877       -4.02943734
 C           -2.81244960        1.22091503       -3.53715857
 C           -3.20778575       -0.15990501       -3.74790251
 C           -2.08747423       -0.86047384       -4.34654018
 C           -1.52689449        1.41740638       -4.18097199
 C           -1.04320253        0.11255188       -4.60400733
