   70
C70 / DATE: 7/ 1/2024 / Origin: Program Fullerene / C70 from database
 C            1.40927658       -0.10283656        4.15339690
 C            2.51039939       -0.31704959        3.23564198
 C            2.27564461       -1.57700285        2.54229004
 C            0.55673999       -1.27542939        4.10498089
 C            1.05566322       -2.15786173        3.06147160
 C           -0.81713970       -0.81681013        4.01518123
 C            0.57008264        1.06326571        3.96696025
 C           -0.76761432        0.58906864        3.65042678
 C            1.08224898        2.12974173        3.25075394
 C            3.00959493        0.75901870        2.50815202
 C            2.39954305        2.01369129        2.63516424
 C            3.76349562        0.46967794        1.37516403
 C            2.55140680       -1.65367655        1.18408844
 C            3.50635898       -0.77646531        0.66917253
 C            1.62190443       -2.24551705        0.31932821
 C            0.13566580       -2.72783090        2.18938598
 C            0.42982768       -2.80220975        0.81823344
 C           -1.71728014       -1.62895929        3.35273627
 C           -1.19208025       -2.76230792        2.60995526
 C           -2.68564014       -1.00664350        2.47386425
 C           -1.39873347        1.02205342        2.47848404
 C           -2.36705216        0.21265290        1.87552867
 C            0.22425612        2.79820471        2.29266976
 C           -0.90994667        2.14404736        1.80765558
 C            2.43743069        2.97220543        1.53583638
 C            1.09329260        3.50764587        1.37177706
 C            4.01609766        1.50304281        0.38802899
 C            3.22098813        2.71339574        0.41867072
 C            3.52735955       -0.49238092       -0.75357099
 C            3.87323710        0.90598299       -0.92896016
 C            1.80622616       -2.11404173       -1.05832050
 C            2.53148606       -1.03289679       -1.54865407
 C            0.98747521       -2.81154921       -1.93066756
 C           -0.51641130       -3.34532731       -0.06908926
 C           -0.25309942       -3.36578941       -1.43352959
 C           -2.22395068       -3.15277814        1.67914932
 C           -3.20754660       -2.07853001        1.65811529
 C           -1.85101845       -3.42680651        0.31079310
 C           -3.51123666       -1.79850462        0.27782773
 C           -2.85396299       -2.80660312       -0.53677715
 C           -2.78974046        0.48532087        0.56456395
 C           -3.49490662       -0.48864894       -0.17094291
 C           -1.41103895        2.47724417        0.54884298
 C           -2.40354521        1.69087083       -0.04069040
 C            0.61566735        3.80356733        0.10572294
 C           -0.74799319        3.43278735       -0.22491692
 C            2.67312081        2.91791081       -0.91422010
 C            2.98048823        1.74246316       -1.70978202
 C            1.43442705        3.52150768       -1.06597920
 C            1.99148992       -0.25958854       -2.57748873
 C            1.97119694        1.12774014       -2.44761636
 C            0.72631510       -2.23571524       -3.23811775
 C            1.11838395       -0.85782657       -3.47282784
 C           -1.31493213       -2.98577582       -2.35838993
 C           -2.51385844       -2.48376457       -1.84962371
 C           -0.69540038       -2.35234671       -3.50770907
 C           -3.65881440       -0.33151500       -1.53822102
 C           -3.08819122       -1.34043025       -2.41877876
 C           -2.79317713        1.97967194       -1.34946646
 C           -3.45328901        0.96307211       -2.13538556
 C           -0.80739398        3.34079398       -1.67013492
 C            0.54240610        3.04615366       -2.11104083
 C            0.79687907        1.82870703       -2.74420352
 C           -1.84998347        2.63523879       -2.23621523
 C           -0.06058338       -0.11956144       -3.88603805
 C           -1.17762969       -1.05634060       -3.93807543
 C           -2.43218700       -0.64378806       -3.51886990
 C           -2.67963499        0.77565924       -3.35433155
 C           -0.25258610        1.17584674       -3.40173972
 C           -1.54847783        1.68285896       -3.28963962
