   70
C70 / DATE: 7/ 1/2024 / Origin: Program Fullerene / C70 from database
 C            1.30714888       -0.03314335        5.05902387
 C            0.52892691       -1.22303545        4.75199824
 C            1.41157720       -2.16843263        4.11749486
 C            2.56904218       -0.14141261        4.34945955
 C            2.68747112       -1.49980524        3.88129008
 C            2.62030668        0.92693362        3.37373916
 C            0.59343965        1.11126321        4.51845500
 C            1.44347709        1.76558249        3.55349146
 C           -0.65574609       -0.80090090        4.03513901
 C           -0.68904975        0.64860519        4.05913178
 C           -1.04270179       -1.44118937        2.85203903
 C            1.00453037       -2.76073898        2.85739648
 C           -0.17608414       -2.35159284        2.22491356
 C            3.02785758       -1.72505237        2.49024234
 C            2.21519588       -2.84917085        2.06949532
 C            3.05746161        0.67575394        2.07410609
 C            3.18409433       -0.64654587        1.61015609
 C            2.85324777        1.69757849        1.15665126
 C            0.86170142        2.32988353        2.41879551
 C            1.70454010        2.57206702        1.34233647
 C           -1.26068371        1.26457526        2.96316167
 C           -0.51123025        2.15431596        2.17732645
 C           -2.01651839       -0.80325548        2.08071896
 C           -2.25823111        0.55215996        2.32944626
 C           -2.34723375       -1.33372088        0.83399862
 C           -0.31840366       -2.61429680        0.85389405
 C           -1.38096676       -2.05478159        0.13738470
 C            2.08760400       -3.07565923        0.71699901
 C            0.75014227       -3.17744081        0.16101100
 C            3.14177362       -0.91698197        0.23350810
 C            2.82017572       -2.21086371       -0.18307821
 C            2.98201033        1.43403759       -0.25742524
 C            3.14068063        0.12787403       -0.69890888
 C            1.14280736        2.85620200        0.03630196
 C            2.05060103        2.31036733       -0.95208081
 C           -1.05970438        2.56011201        0.94707986
 C           -0.22528508        2.73048933       -0.16272490
 C           -3.05920411        1.26387280        1.46206915
 C           -2.42148086        2.34794517        0.73746740
 C           -3.43066277       -0.79521301        0.14974963
 C           -3.88110079        0.52567503        0.53413209
 C           -3.46715020       -0.85910755       -1.29950560
 C           -1.34391757       -2.00938437       -1.26812772
 C           -2.42560445       -1.48338860       -1.98557441
 C            0.88253818       -2.92874366       -1.26009394
 C            2.22663662       -2.41638358       -1.48591240
 C           -0.17383804       -2.35568259       -1.95348052
 C            2.89228157       -0.13745513       -2.04627166
 C            2.40899118       -1.44775501       -2.45326625
 C            1.53990658        1.90518705       -2.17427438
 C            2.17005783        0.85298965       -2.83272366
 C           -0.70229732        2.47532860       -1.45746631
 C            0.21485185        2.20563308       -2.49081426
 C           -2.95102375        2.33985536       -0.61306507
 C           -3.99048678        1.32642167       -0.66514103
 C           -3.98773915        0.41652181       -1.78887677
 C           -2.08511520        2.44079552       -1.69545942
 C           -3.49889349        0.90087700       -2.98918959
 C           -2.56955367        2.02579966       -2.93645221
 C           -2.28411854       -1.22996572       -3.35149829
 C           -2.93791080       -0.05931255       -3.91111401
 C            0.09068396       -1.78085227       -3.19484713
 C            1.35452215       -1.23762178       -3.42875856
 C            1.45889838        0.14023765       -3.87872890
 C           -0.97177831       -1.33058770       -3.96464737
 C           -0.23595370        1.88508292       -3.76929590
 C           -1.65514104        1.89254530       -4.04699154
 C           -1.97845968        0.65202125       -4.73326727
 C            0.33731644        0.72866700       -4.44099285
 C           -0.76922941       -0.14378303       -4.77954901
