   70
C70 / DATE: 7/ 1/2024 / Origin: Program Fullerene / C70 from database
 C            1.47722122        0.12178486        4.87385507
 C            0.66215783       -1.07570178        4.81469917
 C            1.32896897       -2.04156841        3.95805352
 C            2.63736465       -0.09069910        4.02839026
 C            2.52863042       -1.40802326        3.42652596
 C            2.75360016        1.05438409        3.15187362
 C            0.70374094        1.20368043        4.28894717
 C            1.50450215        1.79722539        3.23745923
 C           -0.68544984       -0.67273351        4.46632346
 C           -0.60369783        0.68134927        3.94099581
 C           -1.47101793       -1.58844189        3.79057790
 C            0.54790378       -2.83196978        3.11842533
 C           -0.84079188       -2.79390926        3.26919535
 C            1.10827469       -3.29677447        1.92740108
 C            2.84431904       -1.56616563        2.07712603
 C            2.27567192       -2.62470216        1.37684624
 C            3.30795423        0.85689255        1.89704772
 C            3.40193090       -0.49984312        1.36828596
 C            2.86602363        1.70448467        0.80622368
 C            0.88031628        2.17948166        2.05453735
 C            1.67504901        2.41591981        0.93420798
 C           -1.11583707        0.95627913        2.67259328
 C           -0.47811369        1.89964053        1.86676780
 C           -2.35217266       -1.10590275        2.74504225
 C           -2.04928933        0.09088687        2.09892578
 C           -1.70106863       -3.28764559        2.20949031
 C           -2.69864017       -2.25886838        1.94720555
 C            0.26328763       -3.70288562        0.81260361
 C           -1.11487119       -3.66902330        0.93987914
 C            2.10530435       -2.53417738       -0.06719396
 C            0.87445144       -3.21867910       -0.41381404
 C            3.23147357       -0.42093428       -0.07891916
 C            3.10178075        0.97957231       -0.42681444
 C            2.43979678       -1.35671373       -0.73345441
 C            2.33784232        1.33538520       -1.52438344
 C            1.05945150        2.86944104       -0.22945112
 C            1.65579221        2.54019625       -1.44797910
 C           -1.06495778        2.26637607        0.66031665
 C           -0.32016284        3.06703496       -0.19787034
 C           -2.42845370        0.27962793        0.76300298
 C           -2.08427615        1.47273724        0.12456466
 C           -2.79274037       -2.09058350        0.51653031
 C           -1.90427758       -3.04848076       -0.10634180
 C           -2.82363133       -0.81014982       -0.02289116
 C            0.08725934       -2.68562901       -1.42537985
 C           -1.30658559       -2.66165019       -1.29790418
 C            1.71660067       -0.97560311       -1.87266024
 C            1.81977859        0.34057756       -2.35414558
 C            0.68784441       -1.80694405       -2.32886494
 C            1.08018169        0.73950568       -3.47511891
 C            1.10011922        3.03852958       -2.61334768
 C            0.90082979        2.10915768       -3.71154771
 C           -0.94178505        3.57266214       -1.33056802
 C           -0.11096720        3.82173961       -2.49001229
 C           -2.46789620        1.67300012       -1.20570861
 C           -2.13132873        2.88934781       -1.80167868
 C           -2.67746939       -0.70954598       -1.40406214
 C           -1.99923160       -1.73973973       -2.07208022
 C           -2.76442397        0.55151561       -1.99314893
 C           -0.04579384       -1.43352017       -3.44840497
 C            0.27521018       -0.19385777       -4.12658132
 C           -1.48988418       -1.49571062       -3.33612294
 C           -2.74886700        0.62697426       -3.38723873
 C           -0.94363450        0.22886256       -4.80177754
 C           -2.04670883       -0.40925720       -4.10910913
 C           -0.24524024        2.58593116       -4.47289110
 C           -0.91407900        3.60007037       -3.67670488
 C           -2.18415150        3.04229404       -3.24430462
 C           -1.25716954        1.63950924       -4.88189791
 C           -2.43596796        1.87397673       -4.05354614
