   70
C70 / DATE: 7/ 1/2024 / Origin: Program Fullerene / C70 from database
 C            1.56913949        0.02198040        4.50210451
 C            0.73603504       -1.15589887        4.36914825
 C            1.33042953       -2.02258413        3.36459074
 C            2.63726644       -0.08201222        3.52451081
 C            2.45752897       -1.31497700        2.78399489
 C            2.66799757        1.15801911        2.77553451
 C            0.75763816        1.17037902        4.13961374
 C            1.48804363        1.92026264        3.14165879
 C           -0.62990945       -0.71078433        4.16293399
 C           -0.56670749        0.69465103        3.79476396
 C           -1.46627048       -1.54304168        3.44057682
 C            0.47726384       -2.72461341        2.52272796
 C           -0.88538578       -2.72008134        2.82080757
 C            0.87891215       -2.97877504        1.20900950
 C            2.58597605       -1.26978364        1.40097846
 C            1.84463527       -2.15492592        0.61106490
 C            2.99874078        1.11129161        1.42500990
 C            3.15815601       -0.13929622        0.81433427
 C            2.63717573        2.20477178        0.63426889
 C            0.78471300        2.52229883        2.10957929
 C            1.52258880        2.95943675        1.01589108
 C           -1.13038640        1.11730022        2.59052083
 C           -0.56554328        2.20008909        1.91141212
 C           -2.33996043       -0.95867976        2.43989889
 C           -2.03733638        0.29312828        1.92166379
 C           -1.82784804       -3.16002971        1.81458629
 C           -2.70288514       -2.02611013        1.52866569
 C            0.06007757       -3.77269300        0.40416906
 C           -1.34748252       -3.90959372        0.75452796
 C            0.13732220       -3.62807933       -1.03761710
 C            1.91359159       -2.06036073       -0.78529067
 C            0.86973490       -2.56676072       -1.55443884
 C            3.48175665       -0.19375246       -0.53456582
 C            2.78093005       -1.14679179       -1.37397411
 C            3.10739098        2.26452441       -0.67371478
 C            3.60302432        1.04575012       -1.28086127
 C            2.33945995        2.96668472       -1.68449916
 C            0.87516243        3.77399659        0.09685932
 C            1.33715224        3.83299035       -1.28037224
 C           -1.20581537        2.69358540        0.77300002
 C           -0.57291486        3.72476316        0.07589820
 C           -2.40059904        0.60048781        0.61137504
 C           -2.15716393        1.88727308        0.13169167
 C           -3.00786790       -1.72406676        0.20390673
 C           -2.91166902       -0.39501683       -0.24473620
 C           -2.11014627       -3.89744886       -0.47655932
 C           -1.16742072       -3.94507326       -1.57927619
 C           -2.99443229       -2.77301336       -0.71742105
 C           -1.69862464       -3.11334813       -2.63490350
 C           -2.90947157       -2.48260947       -2.12993628
 C            0.38769694       -1.81232356       -2.63644900
 C           -0.86492733       -2.05802199       -3.17550907
 C            2.32310851       -0.44165178       -2.55648505
 C            2.91618367        0.87274143       -2.55156019
 C            2.05522977        2.01485771       -2.74932882
 C            0.99658875       -0.59776430       -2.93580878
 C            0.73588157        1.82534740       -3.15659058
 C            0.19941119        0.52345106       -3.24343417
 C            0.16526157        3.97242667       -2.12679619
 C           -0.99847121        4.07895981       -1.26067835
 C           -0.11352512        2.93037792       -3.09848813
 C           -2.67396357        2.24431577       -1.10766002
 C           -2.06570368        3.31984775       -1.86758730
 C           -1.54427808        2.73548766       -3.09446885
 C           -3.12939868       -0.10768650       -1.60290280
 C           -2.87684571       -1.10064346       -2.54063680
 C           -1.72862622       -0.92543388       -3.41512253
 C           -1.17783173        0.35077218       -3.48496140
 C           -2.95993541        1.19323110       -2.05650572
 C           -2.04785759        1.38824644       -3.17213818
