   70
C70 / DATE: 7/ 1/2024 / Origin: Program Fullerene / C70 from database
 C            1.54814329       -0.02483963        5.15625842
 C            0.68071411       -1.17113317        5.36182914
 C            1.21089306       -2.26010934        4.57189919
 C            2.51677069       -0.36694935        4.12610056
 C            2.31450153       -1.75102219        3.76916046
 C            2.42539584        0.62860740        3.07991375
 C            0.73036658        1.04649982        4.62923431
 C            1.42388048        1.60232036        3.47914230
 C           -0.62996407       -0.85299429        4.81521950
 C           -0.61013810        0.53274554        4.40884578
 C            0.09199451       -2.86215785        3.86961797
 C           -0.95636063       -1.85378015        3.81596714
 C            0.38637440       -3.53911895        2.70460368
 C            2.35115165       -2.12334614        2.42937531
 C            1.69559279       -3.30916483        2.11906555
 C            2.44343922        0.22218004        1.74847984
 C            2.49906166       -1.14192870        1.42563826
 C            1.99416207        1.12733407        0.78731248
 C            0.64271136        2.15705211        2.47403568
 C            1.16091858        2.17739356        1.17993048
 C           -1.21637850        0.88946209        3.21521606
 C           -0.73796756        2.03684193        2.60545692
 C           -1.44526814       -1.43415395        2.57211408
 C           -1.78129634       -0.09192992        2.38700191
 C           -0.54064102       -3.43269373        1.59868579
 C           -1.28540724       -2.26089136        1.45555624
 C            1.60561899       -3.72135621        0.74486824
 C            0.19150306       -3.94080120        0.46482251
 C            2.44376522       -1.51579940        0.07204987
 C            2.09888272       -2.82242751       -0.27115296
 C            2.08092671        0.79192460       -0.55835166
 C            2.33080057       -0.53485004       -0.92271074
 C            1.64220369        1.70586354       -1.51900082
 C            0.43994979        2.87350641        0.20999055
 C            0.78498399        2.74307532       -1.13701985
 C           -1.52275371        2.57795485        1.61213443
 C           -0.85509813        3.26797892        0.53440364
 C           -2.30959222        0.32084140        1.15888662
 C           -2.47701124        1.68938269        0.97808612
 C           -1.57419439       -1.76535137        0.17045603
 C           -2.16713433       -0.50077728        0.03080111
 C           -0.06872956       -3.36213291       -0.82590485
 C            1.21670294       -3.01902482       -1.39686076
 C           -1.09308725       -2.43342351       -0.96810163
 C            2.02549366       -0.94591410       -2.22551223
 C            1.20157600       -2.05710952       -2.38197536
 C            1.81925610        1.39930734       -2.86596907
 C            1.99912093        0.00838640       -3.24009303
 C            0.98765739        2.03525141       -3.87716507
 C           -0.00359127        3.39234634       -2.09405567
 C            0.06866514        3.00139868       -3.49149924
 C           -1.84119439        3.37097289       -0.51401254
 C           -2.71373713        2.21477766       -0.34725419
 C           -1.39999553        3.66912573       -1.78773919
 C           -2.43884923        0.00674634       -1.25681649
 C           -2.86234089        1.33919745       -1.41244995
 C           -1.15078761       -1.78816737       -2.19929749
 C           -0.01384643       -1.85316204       -3.01288595
 C           -2.05185760       -0.74554677       -2.37460679
 C            1.13845565       -0.24492136       -4.38980262
 C            0.61197352        1.02366820       -4.85352723
 C            0.01788701       -1.14825821       -4.20288187
 C           -2.23509171       -0.25233375       -3.66493494
 C           -0.79078267        0.81960403       -5.17729542
 C           -1.18443902       -0.47248828       -4.64098806
 C           -1.29323839        2.96486885       -4.01136290
 C           -2.18806146        3.15945634       -2.88984179
 C           -2.91195327        1.91649599       -2.68018648
 C           -1.76257311        1.78966797       -4.72019272
 C           -2.70813274        1.09782294       -3.85071035
