   70
C70 / DATE: 7/ 1/2024 / Origin: Program Fullerene / C70 from database
 C            1.26545941        0.28259798        5.10675358
 C            0.46415404       -0.92812174        5.09688412
 C            1.37809105       -2.02522059        4.88251447
 C            2.51559309       -0.02141873        4.43132187
 C            2.63407029       -1.45796442        4.39669645
 C            2.53095781        0.71019463        3.17475468
 C            0.57142303        1.26295164        4.30029029
 C            1.47214563        1.69685079        3.24869911
 C           -0.63160922       -0.72801383        4.15663961
 C           -0.69775330        0.69372468        3.88524034
 C           -0.83151684       -1.62364046        3.10102486
 C            0.98465355       -3.06571236        3.95698724
 C           -0.16921152       -2.85129375        3.09652475
 C            2.92792850       -2.09188130        3.13131096
 C            2.11708433       -3.29220333        3.08223009
 C            2.72759024        0.03710716        1.96481320
 C            3.05415276       -1.33051478        1.96438333
 C            2.31532440        0.67096029        0.77649162
 C            0.88585388        2.09966250        2.06151524
 C            1.54568653        1.83666835        0.86419010
 C           -1.18149780        1.10053590        2.65399929
 C           -0.50202808        2.13021071        2.01774048
 C           -1.44191872       -1.16658560        1.92386515
 C           -1.82647616        0.17332881        1.83856149
 C           -1.37159329       -1.93389456        0.75593029
 C            0.15005053       -3.46979678        1.82610793
 C            1.59180195       -3.68994874        1.79570853
 C           -0.46574663       -3.00069126        0.67152076
 C            3.04536075       -2.02448309        0.76021776
 C            2.27978378       -3.26474516        0.67164773
 C            2.45239773        0.02471710       -0.45631555
 C            2.86004618       -1.30331919       -0.48421055
 C            1.82964441        0.54993981       -1.59439502
 C            0.97811773        2.38904757       -0.28598944
 C            1.22817136        1.81176437       -1.53286437
 C           -1.07581416        2.63572169        0.86995392
 C           -0.20836345        3.09760975       -0.11031946
 C           -2.37459179        0.66697133        0.65277564
 C           -2.25589074        2.03855484        0.44583655
 C           -1.97548336       -1.46524627       -0.41652086
 C           -2.48348718       -0.16315171       -0.46880650
 C           -1.71957628       -2.14150809       -1.60303235
 C            0.16624560       -3.25156390       -0.54439362
 C            1.55654264       -3.21910725       -0.57802824
 C            2.19927774       -2.21207094       -1.39934085
 C           -0.50085706       -2.91827758       -1.70911520
 C            1.55956193       -0.30349424       -2.67347961
 C            1.46422790       -1.67354395       -2.43969964
 C            0.27489476       -2.31302136       -2.77386143
 C            0.93190953        0.20163840       -3.80626377
 C            0.59358098        2.34212035       -2.66561564
 C            0.58132601        1.60648117       -3.85072326
 C           -0.77236043        3.74691146       -1.19464547
 C           -0.26493556        3.43615757       -2.51575198
 C           -2.89704544        2.60716733       -0.64092511
 C           -2.22111414        3.72017916       -1.28103803
 C           -2.87306381        0.40258124       -1.69845549
 C           -3.33616556        1.72212501       -1.70107197
 C           -1.89208983       -1.45897063       -2.87085579
 C           -0.66002057       -1.62795176       -3.63612484
 C           -0.18886346       -0.54775030       -4.36333202
 C           -2.53780756       -0.22882832       -2.90922055
 C           -0.53884941        1.71925834       -4.77281252
 C           -1.16400398        0.41342832       -4.82649399
 C           -2.40600154        0.51552238       -4.08645341
 C           -1.36371650        3.64554187       -3.45042271
 C           -2.59162984        3.72341610       -2.67957258
 C           -3.33640916        2.50091126       -2.92907637
 C           -1.59185014        2.67107870       -4.49122040
 C           -2.78376755        1.91029745       -4.12268282
