   70
C70 / DATE: 7/ 1/2024 / Origin: Program Fullerene / C70 from database
 C            1.19036518        0.01835466        4.59646540
 C            2.49516364       -0.25898681        4.02846632
 C            2.47597271       -1.62778149        3.53935153
 C            0.37729342       -1.17636191        4.42798642
 C            1.09942678       -2.08912780        3.57289036
 C           -0.93529421       -0.75733730        4.01028502
 C            0.42308662        1.14800266        4.09766013
 C           -0.93586233        0.69009971        3.88204214
 C            0.99170031        2.01963671        3.18246511
 C            2.99287986        0.58391224        2.95707222
 C            2.30728675        1.74111417        2.61523123
 C            3.17994536       -1.65853178        2.27419401
 C            3.48714615       -0.28473680        1.90218222
 C            2.71325100       -2.51534282        1.28996336
 C            0.50601332       -2.53566079        2.38962184
 C            1.33798827       -2.99501027        1.36679790
 C           -1.59628495       -1.47997241        3.03080332
 C           -0.83411376       -2.21564795        2.10289140
 C           -2.79754827       -0.92614371        2.61771408
 C           -1.72309034        1.24774990        2.87285249
 C           -2.85679595        0.52493178        2.51550829
 C            0.16092376        2.57714070        2.12898869
 C           -1.13479139        2.09665233        1.92321009
 C            2.28517584        2.16254187        1.22828128
 C            1.01648363        2.81436665        0.98016781
 C            3.35879966        0.09385774        0.56524941
 C            2.80760007        1.34211456        0.23671967
 C            2.97484199       -2.17947325       -0.09545130
 C            3.42978020       -0.90235427       -0.41326512
 C            0.82647445       -3.08319477        0.01013949
 C            1.90792962       -2.75520098       -0.89653383
 C           -1.32792842       -2.43206109        0.80290300
 C           -0.44287871       -2.60493009       -0.25475760
 C           -3.46762768       -1.48327013        1.46932782
 C           -2.66492317       -2.20163470        0.50981951
 C           -3.56257108        0.85045506        1.29698488
 C           -4.11286440       -0.38813096        0.77329012
 C           -1.71126673        2.24285438        0.65117267
 C           -3.00103138        1.74954985        0.40154152
 C            0.46043708        2.72059182       -0.28466561
 C           -0.92208474        2.73450137       -0.40112015
 C            2.45188448        1.60166824       -1.08547428
 C            1.23382187        2.25035386       -1.35194241
 C            3.39658674       -0.52970352       -1.75053193
 C            3.06713394        0.84266209       -2.06852517
 C            1.61995672       -2.15988181       -2.11779590
 C            2.61304189       -1.34590596       -2.65873640
 C           -0.72698779       -2.04521876       -1.50387102
 C            0.28081898       -1.93997021       -2.47108829
 C           -3.01698076       -1.71220659       -0.81418320
 C           -3.98872035       -0.63969326       -0.64821024
 C           -2.01956550       -1.58016364       -1.78176138
 C           -3.49536785        1.73542225       -0.90066386
 C           -3.89433492        0.45999803       -1.48387599
 C           -1.46388488        2.93530541       -1.66067046
 C           -2.81069434        2.48894097       -1.92716961
 C            0.69210980        2.26964697       -2.64882404
 C           -0.65129420        2.61795762       -2.82319799
 C            2.54773233        0.85783894       -3.41848245
 C            2.32629871       -0.52685416       -3.81627315
 C            1.32887271        1.58659449       -3.68455051
 C           -0.01888100       -1.35122370       -3.69901489
 C            1.00935958       -0.61074946       -4.40595918
 C            0.52800303        0.74890781       -4.55784538
 C           -2.22964474       -0.70986295       -2.85614632
 C           -3.15863902        0.32205720       -2.72344833
 C           -2.77091486        1.66107013       -3.11967102
 C           -1.47477656        1.83392035       -3.73858868
 C           -1.25096788       -0.59696224       -3.84021775
 C           -0.90297429        0.72851584       -4.34772733
