   70
C70 / DATE: 7/ 1/2024 / Origin: Program Fullerene / C70 from database
 C            1.54386043       -0.08748494        5.06314373
 C            0.76413404       -1.30358303        4.93319222
 C            1.66329238       -2.32016309        4.43230770
 C            2.73044792       -0.24441486        4.23710290
 C            2.82978728       -1.64004758        3.88069623
 C            2.65346334        0.73577051        3.17253470
 C            0.76155714        0.99372095        4.49660018
 C            1.57323408        1.64920180        3.48968975
 C           -0.43866066       -0.98514526        4.17198483
 C           -0.51777479        0.45929115        4.06958152
 C           -0.79432751       -1.75893954        3.06535960
 C            1.17031916       -3.21672807        3.41256473
 C           -0.13324963       -2.96258891        2.82190622
 C            2.91492362       -1.99539252        2.47538355
 C            2.12983462       -3.19561237        2.32020391
 C            2.80484810        0.34711598        1.84291450
 C            2.80779602       -1.00998392        1.49139094
 C            2.45663665        1.27359252        0.86840176
 C            0.90747722        2.23886333        2.42392482
 C            1.55950301        2.29727238        1.19478072
 C           -1.07676510        1.01152437        2.92724475
 C           -0.48092374        2.15846379        2.40813073
 C           -1.54945826       -1.17953534        2.03575561
 C           -1.80457389        0.19466509        2.05896469
 C           -1.78290866       -1.90270273        0.85988232
 C           -0.02740365       -3.42381242        1.45914420
 C            1.37476750       -3.34894940        1.09752674
 C           -0.92121987       -2.94922625        0.52040296
 C            2.42027287       -1.38108262        0.19180015
 C            1.69535746       -2.56488534       -0.00680466
 C            2.61820275        0.92285629       -0.46226331
 C            2.42807430       -0.41481708       -0.82105212
 C            2.45877460        1.92484866       -1.40696097
 C            0.95885913        3.02974585        0.16720910
 C            1.52377690        2.99189097       -1.10484751
 C           -1.15276468        2.82847579        1.40242060
 C           -0.38022755        3.39137392        0.30545072
 C           -2.44560962        0.79842813        0.97522234
 C           -2.30428472        2.17678475        0.81470042
 C           -2.55372660       -1.33363378       -0.16438257
 C           -2.88707559        0.02364148       -0.10126830
 C           -2.60229493       -2.00020022       -1.39551668
 C           -0.50826730       -3.02138080       -0.79658992
 C            0.80330290       -2.62056526       -1.07603775
 C           -1.48988961       -2.85880038       -1.75210497
 C            1.89334155       -0.73235178       -2.07739926
 C            1.05875642       -1.84324310       -2.20372779
 C            2.30177299        1.56659274       -2.79887982
 C            1.96669118        0.19632541       -3.11485466
 C            0.67954498        3.18036471       -2.27546948
 C            1.26979114        2.42075452       -3.36391751
 C           -1.24825624        3.41794945       -0.86292827
 C           -2.50421411        2.77731350       -0.48762181
 C           -0.70518778        3.20472323       -2.12876511
 C           -3.46489492        0.65641625       -1.20802613
 C           -3.21552608        2.07096338       -1.43872500
 C           -3.01967464       -1.30413054       -2.60025553
 C           -3.47532463       -0.00098047       -2.50373340
 C           -1.09306389       -2.55095647       -3.10664775
 C            0.21230049       -1.95897678       -3.30633545
 C           -2.08799481       -1.65380733       -3.66383622
 C            0.92236389        0.23147069       -4.12492026
 C            0.41050665        1.59302139       -4.18840759
 C            0.04615584       -0.83856096       -4.21579510
 C           -1.38283039       -0.59847868       -4.37219025
 C           -1.51716042        2.71275510       -3.15191501
 C           -2.85341239        2.24061255       -2.83184633
 C           -3.05579742        0.97007259       -3.50318415
 C           -0.96059036        1.81579795       -4.15626179
 C           -1.87839413        0.69850060       -4.31404737
