   70
C70 / DATE: 7/ 1/2024 / Origin: Program Fullerene / C70 from database
 C            1.23534368       -0.13796039        4.09648934
 C            2.46265079       -0.45301329        3.40301150
 C            2.34183355       -1.80287552        2.87247078
 C            0.39310967       -1.32137184        4.06078630
 C            0.99267441       -2.26062490        3.13797774
 C           -0.96354236       -0.88502271        3.80284132
 C            0.43808665        0.97705895        3.62450021
 C           -0.94959691        0.56407020        3.65288297
 C            0.87168826        1.74120960        2.55132374
 C            2.87989299        0.40199970        2.31127717
 C            2.12669179        1.51937915        1.96253400
 C            2.80853347       -1.77841339        1.49717517
 C            3.35082405       -0.45716153        1.24641789
 C            2.03532747       -2.37459557        0.50583070
 C            0.22607580       -2.72422144        2.07697137
 C            0.85372802       -3.02594910        0.86369586
 C           -1.76152096       -1.62583258        2.93816816
 C           -1.16915487       -2.60972672        2.13458902
 C           -2.95192021       -1.03291610        2.52587903
 C           -1.85837987        1.14503538        2.76717953
 C           -3.01729800        0.41959793        2.49319277
 C           -0.06401391        2.52828180        1.88861549
 C           -1.41307672        2.12653608        1.85860546
 C            0.40829887        3.49566512        1.01118445
 C            2.41517159        2.13383628        0.74314986
 C            1.70457266        3.28059720        0.39428927
 C            3.30391855        0.03274964       -0.04868507
 C            3.08544390        1.39863863       -0.24282262
 C            2.23844565       -1.98997635       -0.82518918
 C            3.02021146       -0.85333257       -1.08649702
 C            1.47312311       -2.57626713       -1.84705710
 C            0.14804543       -3.70612431       -0.11463652
 C            0.38193360       -3.36649502       -1.50380388
 C           -1.94157495       -3.26161938        1.17789240
 C           -1.28063504       -3.89514637        0.05165878
 C           -3.66570768       -1.54364644        1.36513691
 C           -3.12601719       -2.60431040        0.65757568
 C           -3.85080520        0.79737505        1.37709265
 C           -4.16204191       -0.40186633        0.61825306
 C           -2.26097181        2.56464572        0.82027385
 C           -3.34340741        1.77852409        0.45364942
 C           -0.48010143        4.02365406        0.00526388
 C           -1.74392808        3.36007537       -0.19251411
 C            1.61351634        3.68992339       -0.99995295
 C            0.22444498        4.01919625       -1.26359257
 C            3.20948306        1.91905491       -1.52787497
 C            2.29908786        2.96216845       -1.95895297
 C            3.22501097       -0.42599157       -2.39418254
 C            3.35471487        0.99799742       -2.64555258
 C            1.38847232       -1.93632874       -3.07889806
 C            2.39297794       -0.96690484       -3.44400048
 C            0.09292956       -1.40813667       -3.48057629
 C           -0.90278864       -3.01285502       -2.08261344
 C           -1.93253075       -3.42471760       -1.16208277
 C           -2.92788141       -2.45456305       -0.77499346
 C           -1.00945333       -1.78525819       -2.72683144
 C           -3.69590697       -0.20152145       -0.74591822
 C           -3.33341921        1.19074210       -0.87718659
 C           -2.89663813       -1.17454906       -1.32942941
 C           -1.83660197       -0.79456356       -2.17012006
 C           -1.76881495        2.82617423       -1.54687241
 C           -0.52244329        3.18153681       -2.18916444
 C           -2.31229849        1.56103844       -1.74230140
 C           -1.52447085        0.57091854       -2.34289608
 C            1.54334643        2.40688663       -3.06784805
 C            2.35717344        1.35922697       -3.64396392
 C            1.70610244        0.14547674       -4.07932464
 C            0.28736965       -0.01657161       -3.81468035
 C            0.16810084        2.22378525       -2.91838447
 C           -0.39141365        0.94737467       -3.07843568
