   70
C70 / DATE: 7/ 1/2024 / Origin: Program Fullerene / C70 from database
 C            1.61738485        0.03119821        4.47546507
 C            0.79171744       -1.15391628        4.37139522
 C            1.33549882       -1.99139704        3.31619136
 C            2.61517604       -0.03583219        3.42229873
 C            2.39986621       -1.24933265        2.66453173
 C            2.57260567        1.21690327        2.70872616
 C            0.76916139        1.17924756        4.20189029
 C            1.41341644        1.95603819        3.17022524
 C           -0.58832810       -0.72348485        4.25864874
 C           -0.57197533        0.69898658        3.95084790
 C           -1.45716079       -1.54131133        3.55595724
 C            0.45038572       -2.70186699        2.51782138
 C           -0.90988080       -2.67929870        2.83442668
 C            0.82552344       -3.00376019        1.21163130
 C            2.41107605       -1.18137332        1.27276516
 C            1.72665322       -2.15654277        0.54704576
 C            2.80275890        1.21697051        1.34172593
 C            2.79876151        0.00423999        0.63454690
 C            2.45214703        2.37144658        0.65560790
 C            0.63539229        2.56825812        2.19704271
 C            1.30795451        3.06007047        1.08403607
 C           -1.25421030        1.16025427        2.82488097
 C           -0.71542513        2.20739309        2.05431963
 C           -2.44349178       -0.93295236        2.68225802
 C           -2.32818475        0.41099912        2.33699173
 C           -1.88388054       -3.04335789        1.81698375
 C           -2.76933497       -1.90225995        1.64472135
 C           -0.01432817       -3.83585104        0.48162139
 C           -1.44547006       -3.72521345        0.69524600
 C            0.20305802       -4.00078916       -0.93731529
 C            1.79555855       -2.13972721       -0.84957533
 C            1.13972838       -3.11925189       -1.59496411
 C            2.84550366        0.04277886       -0.76530737
 C            2.31714609       -1.02127402       -1.50545597
 C            2.90458560        2.48831759       -0.64942050
 C            3.11135913        1.26359456       -1.39786837
 C            2.32073879        3.47427151       -1.53521894
 C            0.58631215        3.85171446        0.20425290
 C            1.11233320        4.14477768       -1.11408849
 C           -1.44919216        2.72353801        0.97358628
 C           -0.83235016        3.59599644        0.07413836
 C           -3.02975871        0.85924177        1.22829998
 C           -2.59460622        2.05941842        0.54500446
 C           -3.07551928       -1.44120912        0.36456832
 C           -3.44929887       -0.10589199        0.22201220
 C           -2.03394278       -3.40394242       -0.58991268
 C           -1.08474389       -3.84323585       -1.59786952
 C           -2.69446332       -2.18758335       -0.75786223
 C            0.55130338       -2.76120295       -2.87194066
 C           -0.87728974       -3.02022840       -2.77493296
 C            2.07224396       -0.85956581       -2.87010995
 C            0.99686283       -1.60801113       -3.49524745
 C            2.65403602        1.49972763       -2.75982552
 C            2.04548901        2.81839135       -2.79975013
 C            2.01700016        0.47251537       -3.43101444
 C            0.07010428        3.83875968       -2.08158546
 C           -1.11208494        3.44851938       -1.34761181
 C            0.61629367        2.91223972       -3.04754552
 C           -2.80060103        1.85858571       -0.88165336
 C           -3.37884889        0.54172222       -1.07530396
 C           -1.84588914        2.34695166       -1.76755644
 C           -2.75537949       -1.61940103       -2.03182242
 C           -1.77864081       -1.99733086       -3.04363205
 C           -3.01682322       -0.19916298       -2.18432538
 C            0.03258203       -0.63462497       -3.99126642
 C            0.64513766        0.67635088       -3.87055189
 C           -0.08129773        1.74524449       -3.34599599
 C           -1.34517445        1.51308517       -2.78057711
 C           -1.31316849       -0.77955498       -3.68864635
 C           -2.03211201        0.34199056       -3.10595874
