   70
C70 / DATE: 7/ 1/2024 / Origin: Program Fullerene / C70 from database
 C            1.13097326       -0.16219543        4.95591920
 C            2.35143714       -0.39375809        4.20771311
 C            2.21002270       -1.66838350        3.51673372
 C            0.29145087       -1.33714157        4.78674835
 C            0.84259729       -2.10925181        3.69062180
 C           -1.07614777       -0.88513922        4.69075746
 C            0.31869288        1.00374202        4.64899034
 C           -1.06500842        0.57185776        4.63864660
 C            0.74757779        1.91408131        3.68850253
 C            2.77789893        0.58796392        3.22770811
 C            2.04937496        1.75730024        3.05550149
 C            2.70946478       -1.49658506        2.16524997
 C            3.21683288       -0.14247447        2.05463051
 C            1.97965521       -2.00975441        1.09298057
 C            0.07609996       -2.34220156        2.55036591
 C            0.72889373       -2.58490136        1.33898274
 C           -1.87995460       -1.33847211        3.57337072
 C           -1.30825565       -2.11005391        2.55950562
 C           -1.92393970        0.96597558        3.53317171
 C           -2.70144703       -0.21025439        3.19324448
 C           -0.18396217        2.38694507        2.67112331
 C           -1.41034466        1.75762851        2.50294939
 C            1.95736042        2.33493603        1.72739581
 C            0.58830410        2.75410860        1.50154943
 C            3.15342668        0.45499952        0.80516843
 C            2.62899089        1.74582422        0.66674948
 C            2.27715835       -1.53112573       -0.18986536
 C            3.08330796       -0.39296449       -0.29585071
 C            1.50376221       -1.94476178       -1.28377391
 C           -0.00629717       -3.08073816        0.27440644
 C            0.44542741       -2.81618133       -1.07899041
 C           -2.03348754       -2.26734091        1.37392621
 C           -1.44890852       -2.93455102        0.30215714
 C           -3.30723496       -0.24907706        1.95505602
 C           -3.12923335       -1.43879879        1.13931965
 C           -1.97259591        1.66564124        1.22565418
 C           -3.10439837        0.87700722        1.06545883
 C            0.05147666        2.56902794        0.23103649
 C           -1.24228778        2.05849816        0.09069214
 C            2.27293870        2.15031158       -0.61533797
 C            0.93061557        2.49479814       -0.85026569
 C            3.29635636        0.17765848       -1.54014939
 C            3.00848889        1.59195907       -1.64885826
 C            1.61873441       -1.29186054       -2.51310353
 C            2.70837298       -0.44630258       -2.70340382
 C            0.52194325       -1.25501262       -3.39485563
 C           -0.72409108       -2.70940662       -1.92625851
 C           -1.89709377       -2.66931946       -1.05995285
 C           -0.68195477       -1.88616519       -3.04483587
 C           -3.45349210       -1.04416167       -0.21923916
 C           -3.45366155        0.41186956       -0.25174582
 C           -2.89983304       -1.72779095       -1.29919070
 C           -1.73719715        1.79365264       -1.19863050
 C           -2.90455716        1.02699095       -1.35918231
 C            0.40758507        2.42982031       -2.14521851
 C           -0.94483926        2.09878256       -2.32033369
 C            2.61226493        1.85584017       -3.01048327
 C            2.66300585        0.58608191       -3.71809506
 C            1.29262163        2.39734948       -3.22760880
 C            0.56494670       -0.45287958       -4.54193285
 C            1.56837087        0.58315023       -4.65673696
 C            0.86884775        1.85132804       -4.49887251
 C           -1.44526179        1.84521082       -3.60310187
 C           -0.65510986        0.16993090       -5.00993509
 C           -0.53366293        1.58674987       -4.69805462
 C           -1.89337791       -1.37664329       -3.50610674
 C           -2.93419694       -1.09110757       -2.53883547
 C           -3.10388066        0.35316468       -2.55203890
 C           -1.90852595       -0.27536702       -4.44900831
 C           -2.49104052        0.86193656       -3.75213482
