   70
C70 / DATE: 7/ 1/2024 / Origin: Program Fullerene / C70 from database
 C            1.02786231       -0.01645680        4.69114211
 C            2.28316824       -0.32966672        4.04529751
 C            2.24063794       -1.73079388        3.67064159
 C            0.19483720       -1.21063452        4.64692134
 C            0.86042074       -2.16598116        3.78784268
 C           -1.14796691       -0.79906867        4.31262395
 C            0.23601800        1.07845808        4.17122998
 C           -1.14614522        0.65004652        4.19245137
 C            0.67246185        1.79685151        3.06196866
 C            2.66333989        0.41881353        2.86408386
 C            1.87680773        1.47285006        2.41853500
 C            2.89281675       -1.86378256        2.38129436
 C            3.16411563       -0.52277954        1.88096223
 C            2.38754251       -2.80219419        1.49741428
 C            0.22245642       -2.66473185        2.64968556
 C            1.02348936       -3.27627348        1.69047265
 C           -1.75901410       -1.32811107        3.11042850
 C           -1.06182255       -2.21899087        2.28939551
 C           -1.98347815        0.99902055        3.05769025
 C           -2.48488193       -0.23626074        2.48828486
 C           -0.27459042        2.53189154        2.35309649
 C           -1.55399425        1.98792196        2.18215436
 C            0.19766903        3.43449614        1.41091431
 C            2.07846614        1.92665221        1.11698030
 C            1.43948734        3.09924714        0.73867956
 C            2.96764137       -0.24903396        0.52548492
 C            2.49651476        1.01600619        0.13835544
 C            2.56196354       -2.57792724        0.07687043
 C            2.91858463       -1.31443094       -0.37832973
 C            0.47679220       -3.58188704        0.38591280
 C            1.50024000       -3.29364018       -0.60697713
 C           -1.52283615       -2.39443724        0.97584232
 C           -0.83490309       -3.24539678        0.09921681
 C           -2.69577805       -0.29980521        1.11933516
 C           -2.50794031       -1.52093125        0.48955219
 C           -2.15216718        2.04469429        0.92278171
 C           -2.64839042        0.86863395        0.35092146
 C           -0.72304300        3.93926901        0.41325003
 C           -1.90048666        3.14905505        0.12159634
 C            1.28652938        3.41231901       -0.66724590
 C            0.01858802        4.10221700       -0.82134369
 C            2.31208901        1.30302482       -1.22159870
 C            1.65385946        2.47121126       -1.62188815
 C            2.76293872       -1.05032942       -1.73001616
 C            2.59383873        0.32042657       -2.16537242
 C            1.10595366       -2.86967436       -1.87427287
 C            1.85571876       -1.88161927       -2.51276448
 C           -1.22076860       -3.32264586       -1.23349291
 C           -0.21595774       -3.08449920       -2.26117759
 C           -3.00172608       -1.66008472       -0.79682255
 C           -2.44689918       -2.68307355       -1.65074682
 C           -2.84340440        0.77936206       -1.03576903
 C           -3.18522715       -0.45710702       -1.59161219
 C           -2.00048055        3.02472578       -1.31981923
 C           -0.84856050        3.70189949       -1.90905096
 C           -2.45077335        1.82911128       -1.87523238
 C            1.06414774        2.54273690       -2.88862078
 C           -0.25669725        3.14401964       -3.03094832
 C            1.85140297        0.28647880       -3.41131368
 C            1.23791824       -1.03166439       -3.51965731
 C            1.13637712        1.40805844       -3.79476961
 C           -0.81986033       -2.25176662       -3.29011014
 C           -2.22674443       -2.10061577       -2.96186331
 C           -2.79857972       -0.76784180       -2.95900104
 C           -0.12450378       -1.15511064       -3.79008938
 C           -2.17746902        1.57583476       -3.21987022
 C           -1.05501168        2.25087560       -3.84426110
 C           -0.17441755        1.23100201       -4.38904067
 C           -2.17434241        0.21181101       -3.71070723
 C           -0.84383326       -0.04977362       -4.24552519
