   70
C70 / DATE: 7/ 1/2024 / Origin: Program Fullerene / C70 from database
 C            1.09557368       -0.01436404        4.62997646
 C            2.32684379       -0.41269576        3.99307961
 C            2.26538561       -1.85070083        3.78411322
 C            0.26677864       -1.20618209        4.76613493
 C            0.88232515       -2.24353916        3.96730173
 C           -1.09192375       -0.82292970        4.46693342
 C            0.28031485        0.99938163        3.99205775
 C           -1.08513437        0.61390264        4.25577020
 C            0.60085031        1.46538141        2.71090907
 C            2.67175981        0.18581906        2.72303759
 C            1.82571424        1.12252050        2.11797056
 C            2.89432185       -2.14040441        2.50735482
 C            3.23874611       -0.86575221        1.89959118
 C            2.33017793       -3.12286914        1.70811843
 C            0.20318096       -2.79205759        2.87836969
 C            0.95910155       -3.53569927        1.97719601
 C           -1.74390283       -1.41611133        3.31381653
 C           -1.02126531       -2.23997614        2.45962274
 C           -2.05485634        0.89112269        3.23129189
 C           -2.56895516       -0.37680219        2.73647720
 C           -0.41075256        2.04343496        1.92555474
 C           -1.75777189        1.85185962        2.28113678
 C           -0.09789036        2.53371573        0.64791282
 C            2.02979416        1.39184116        0.76294935
 C            1.14005823        2.21960934        0.07361136
 C            3.15084843       -0.70882751        0.52492032
 C            2.90708233        0.57180860        0.04795278
 C            2.46724668       -3.01264569        0.26860439
 C            2.82789617       -1.79437453       -0.29747318
 C            0.36778886       -3.94141704        0.72072266
 C            1.36360870       -3.73839064       -0.31973499
 C           -1.42694968       -2.33499231        1.12196866
 C           -0.85092195       -3.28930967        0.29469281
 C           -2.91202560       -0.43408695        1.38683437
 C           -2.24688323       -1.34731466        0.55668289
 C           -2.71744594        1.98538455        1.29704942
 C           -3.35181497        0.76187565        0.83235545
 C           -1.10690296        3.10594347       -0.13688231
 C           -2.42928261        2.79012791        0.13952280
 C           -0.80753818        3.59097962       -1.40434592
 C            1.41701140        2.57108302       -1.25359186
 C            0.48083837        3.29043371       -1.99191582
 C            3.09710751        0.79081398       -1.30369729
 C            2.44131227        1.91593993       -1.93235505
 C            2.47839549       -1.53594936       -1.62645478
 C            2.95691825       -0.35336999       -2.18504093
 C            0.69248670       -3.14885292       -1.46004999
 C           -0.70929829       -2.99505562       -1.11552821
 C            1.30770767       -2.10871944       -2.15097830
 C           -2.26160225       -1.17239687       -0.84108502
 C           -1.38475926       -1.90723489       -1.64557908
 C           -3.50617288        0.87632373       -0.60003103
 C           -3.27037121        2.27517817       -0.92466547
 C           -2.97352951       -0.11132867       -1.41817170
 C           -1.81266764        3.47814385       -2.45352744
 C           -2.96270034        2.61776134       -2.23023918
 C            0.27027538        2.96633234       -3.39960935
 C           -1.15237496        3.03754270       -3.66877542
 C            2.25266711        1.56341550       -3.32731079
 C            2.39306963        0.12095436       -3.43252214
 C            1.00748085        1.93492940       -3.96631748
 C            0.51016626       -1.35974437       -3.02025035
 C           -0.86993595       -1.31694334       -2.79525478
 C            1.11293222       -0.40981623       -3.83886390
 C            0.33141091        0.69947675       -4.35562797
 C           -2.79042896        0.18110771       -2.77129924
 C           -2.92111200        1.55884927       -3.22262397
 C           -1.82748346        1.84205214       -4.13670341
 C           -1.66670424       -0.40746376       -3.47650409
 C           -1.05381940        0.62327188       -4.29858417
