   70
C70 / DATE: 7/ 1/2024 / Origin: Program Fullerene / C70 from database
 C            1.31074511       -0.02873214        5.13899531
 C            0.48520395       -1.20332491        4.92638749
 C            1.22246038       -2.12315312        4.09378052
 C            2.49391478       -0.16648675        4.30733350
 C            2.46532940       -1.47455507        3.69899273
 C            2.54603150        0.98175976        3.43271784
 C            0.56589598        1.12948360        4.66582223
 C            1.36304656        1.79339003        3.67053286
 C           -0.80390798       -0.75014578        4.45446459
 C           -0.74985968        0.69216522        4.27802236
 C           -1.48136901       -1.47586943        3.48447447
 C            0.58382362       -2.61702930        2.88852312
 C           -0.75786299       -2.33500656        2.63119388
 C            2.56947022       -1.56306602        2.25263192
 C            1.53192960       -2.47040084        1.80231089
 C            2.95400671        0.83219726        2.11166083
 C            2.83152643       -0.42250579        1.48798288
 C            2.79357856        1.96410332        1.32891602
 C            0.73952394        2.35091250        2.55802451
 C            1.60308351        2.77054700        1.56153851
 C           -1.34317838        1.22782891        3.13277788
 C           -0.54433695        1.90419488        2.18920804
 C           -2.60669709       -0.84148976        2.97677935
 C           -2.49610835        0.58459534        2.70152209
 C           -3.30758948       -1.44820616        1.87550905
 C           -1.22297673       -2.56272110        1.33001728
 C           -2.57252292       -2.38704010        1.06244208
 C            1.03632058       -2.30887855        0.51839109
 C           -0.30840621       -2.58053855        0.26684541
 C            2.55937789       -0.48310803        0.11267711
 C            1.73573390       -1.50268357       -0.37507165
 C            2.95689312        1.86610222       -0.10003296
 C            2.84578145        0.61700746       -0.69974619
 C            1.07768496        3.12998371        0.26820659
 C            2.18748323        2.96540881       -0.64688568
 C           -0.95028113        1.97290261        0.83384712
 C           -0.17294100        2.65228457       -0.10710920
 C           -2.98164704        0.80441698        1.35706014
 C           -3.74217049       -0.37056742        1.00476022
 C           -2.12519269        1.34998400        0.40881168
 C           -2.99337868       -2.16076319       -0.29849697
 C           -3.62653861       -0.85277081       -0.34461059
 C           -0.75481341       -2.53365674       -1.05963058
 C           -2.12961030       -2.46338546       -1.33825867
 C            1.32692990       -1.48353446       -1.70293351
 C            0.16883167       -2.18481810       -2.05744955
 C            2.53617072        0.57500705       -2.06219139
 C            1.89147442       -0.55390241       -2.58010304
 C            1.90177472        2.92306240       -1.99007418
 C            2.42060824        1.79767764       -2.73113392
 C           -0.44986507        2.51927450       -1.47440767
 C            0.50793064        2.98895848       -2.37657312
 C           -2.31172188        1.05644531       -0.95463759
 C           -3.18130681        0.01498504       -1.32991726
 C           -1.43845558        1.61709134       -1.90234046
 C           -2.51472127       -1.94948823       -2.56901150
 C           -3.00654436       -0.57965082       -2.56886613
 C           -0.21683739       -2.25132258       -3.39282311
 C           -1.61936991       -2.09338101       -3.69101301
 C            1.58407890       -0.61246189       -3.93992926
 C            0.50994031       -1.47969484       -4.38319482
 C            1.74274998        1.86192793       -4.00662587
 C            0.47945265        2.55203408       -3.75540748
 C            1.43800588        0.62387344       -4.68246271
 C           -1.51834781        1.22539919       -3.25427995
 C           -2.30021591        0.13010797       -3.60260465
 C           -1.74927450       -0.88743000       -4.48435041
 C           -0.45951500       -0.64886909       -5.09259593
 C           -0.57579851        1.66939311       -4.18129961
 C            0.04656970        0.70613296       -5.07709291
