   70
C70 / DATE: 7/ 1/2024 / Origin: Program Fullerene / C70 from database
 C            1.23751390       -0.01602867        4.93427608
 C            2.47013182       -0.20364233        4.19962750
 C            2.45354732       -1.54192595        3.63065738
 C            0.40071057       -1.18525620        4.70941152
 C            1.15815821       -2.13523611        3.91293207
 C           -0.88772033       -0.72478545        4.21590824
 C            0.43882594        1.15926832        4.65644432
 C           -0.91233509        0.71512599        4.35776240
 C            0.84294685        2.06379440        3.59126720
 C            2.81015712        0.72124535        3.13118507
 C            2.03120681        1.85580597        2.88748587
 C            2.89918113       -1.44456497        2.24841808
 C            3.28134550       -0.06855226        2.00274215
 C            2.20850759       -2.12898336        1.25757806
 C            0.50570702       -2.81920720        2.89696786
 C            1.16911226       -2.98511395        1.61485277
 C           -1.41505841       -1.29652583        3.05988833
 C           -0.88253054       -2.49773803        2.60515667
 C           -2.17139726       -0.51713115        2.17914104
 C           -1.39724031        1.50258062        3.24541141
 C           -0.35943378        2.43628459        2.85783476
 C           -2.10155268        0.88031906        2.23412856
 C           -0.24614431        2.79848838        1.51390026
 C            2.18056125        2.49383664        1.66142363
 C            1.01877419        3.11343611        1.04244777
 C            3.14567030        0.45359048        0.72171993
 C            2.91180387        1.81448651        0.60453365
 C            2.27659825       -1.67031764       -0.05606576
 C            2.76036259       -0.38367371       -0.32835627
 C            1.55965318       -2.34961784       -1.03636237
 C            0.13168586       -3.27749677        0.64068661
 C           -1.14191671       -2.91781840        1.23867465
 C            0.34642849       -2.94426942       -0.68849543
 C           -2.70587725       -1.10604268        1.02926610
 C           -2.05454651       -2.21017754        0.46587615
 C           -3.51252075       -0.31100787        0.21793994
 C           -2.28577855        1.59479829        1.06167215
 C           -1.24071120        2.40383814        0.60237240
 C           -3.22910172        1.11158466        0.17530317
 C           -1.04743184        2.58310111       -0.78184605
 C            1.25596018        3.14506240       -0.38115963
 C            2.43673967        2.34106270       -0.65649868
 C            0.18908218        3.04999498       -1.26082575
 C            2.61513288        0.14740843       -1.61758909
 C            2.42215832        1.52569149       -1.78237974
 C            1.80102291       -2.03675881       -2.36645368
 C            2.34072342       -0.72426099       -2.67248318
 C            0.77818724       -2.34472037       -3.34917802
 C           -0.76569560       -2.74327510       -1.50510920
 C           -1.97015825       -2.33016480       -0.92542350
 C           -0.56724091       -2.60743790       -2.87599752
 C           -3.80398816       -0.74250910       -1.13448234
 C           -2.96512796       -1.76532134       -1.71736566
 C           -3.17451039        1.51551288       -1.21030177
 C           -2.04965318        2.18061544       -1.68456339
 C           -3.73425878        0.42703186       -1.99440586
 C           -1.78792359        2.12113252       -3.05383536
 C            0.53207767        2.83758460       -2.59007721
 C            1.68202707        1.99207647       -2.86660425
 C           -0.49641791        2.52913196       -3.55059316
 C            1.67430545       -0.23718498       -3.87042330
 C            0.71634388       -1.24526586       -4.29540167
 C            1.33218483        1.10268345       -3.95679200
 C            0.00488282        1.47762912       -4.42274771
 C           -1.48004426       -1.79447299       -3.66139357
 C           -2.65958257       -1.35436852       -3.07742966
 C           -3.06484700        0.03745312       -3.22189146
 C           -2.19584808        0.94581203       -3.81105569
 C           -0.68162855       -0.88019826       -4.46509253
 C           -1.03119608        0.46358426       -4.53621333
