   70
C70 / DATE: 7/ 1/2024 / Origin: Program Fullerene / C70 from database
 C            1.37492778       -0.15834799        4.20616506
 C            2.41787563       -0.32613042        3.21157137
 C            2.25353412       -1.64125943        2.60900224
 C            0.52295986       -1.33539102        4.15782839
 C            0.99524921       -2.18525162        3.07677425
 C           -0.85891858       -0.89161338        4.14774505
 C            0.52632066        1.01404589        4.14309431
 C           -0.85743081        0.56385350        4.17013905
 C            0.89636565        2.06762890        3.31605795
 C            2.78452234        0.74424632        2.39789576
 C            2.07159535        1.94497272        2.46370272
 C            3.52017645        0.46374967        1.25042304
 C            2.61887603       -1.81167627        1.27947930
 C            3.52138686       -0.89792768        0.74195240
 C            1.78724566       -2.54153935        0.42332487
 C            0.08493624       -2.67131920        2.14754759
 C            0.51240489       -2.94219651        0.84637948
 C           -1.76788647       -1.56869058        3.34386547
 C           -1.28089167       -2.58337563        2.42315765
 C           -2.82582237       -0.83584985        2.66462256
 C           -1.82709223        1.26745281        3.46484101
 C           -2.86088821        0.54758744        2.73487514
 C           -0.11759515        2.79922392        2.57244788
 C           -1.45065037        2.43357283        2.67880423
 C            1.81066343        2.69631996        1.24273052
 C            0.42519843        3.12023852        1.26195636
 C            3.41071892        1.34485081        0.10201718
 C            2.36346131        2.26002474        0.04968261
 C            3.73282916       -0.83758027       -0.69451147
 C            3.75059925        0.56701039       -1.07845173
 C            2.15194508       -2.69290118       -0.91540405
 C            3.10534448       -1.77011924       -1.50796250
 C            1.13772960       -2.97652784       -1.91630882
 C           -0.40884771       -3.42599885       -0.08144293
 C           -0.13741908       -3.30953894       -1.50266254
 C           -2.24444515       -2.68018782        1.34074513
 C           -3.07472650       -1.48831697        1.38830257
 C           -1.82107750       -3.15332524        0.11217985
 C           -3.24930720       -0.72357868        0.23299272
 C           -3.17226602        1.30806187        1.54010507
 C           -2.28409710        2.45707945        1.49199679
 C           -3.46977114        0.65983799        0.34456457
 C           -0.35851675        2.94177916        0.12391054
 C           -1.74593635        2.82352890        0.26049937
 C            1.64967954        2.41943186       -1.13889061
 C            0.26133179        2.64184734       -1.09871158
 C            3.22826947        0.95439698       -2.30360794
 C            2.26894438        2.04292546       -2.32811937
 C            2.58909435       -1.36573861       -2.80686807
 C            1.30338144       -2.02273104       -2.99805750
 C            2.75927577       -0.05635620       -3.23910296
 C            0.20742561       -1.29092043       -3.45940322
 C           -1.27827559       -2.65109105       -2.11632467
 C           -2.30652088       -2.51205699       -1.09625982
 C           -3.01934194       -1.31839443       -1.01918398
 C           -1.08560085       -1.61209223       -3.02619625
 C           -3.14862877       -0.57332941       -2.18652348
 C           -2.13263186       -0.70924900       -3.22199375
 C           -3.46359441        1.45111550       -0.79798156
 C           -2.51667281        2.55531263       -0.86213151
 C           -3.50527767        0.82225437       -2.09592314
 C           -0.50924973        2.56623512       -2.26954361
 C           -1.86735352        0.61410513       -3.76577370
 C           -1.89448418        2.53014491       -2.16803038
 C           -2.62487341        1.56847548       -2.97729436
 C            1.48392295        1.89379386       -3.53032886
 C            1.72125877        0.55384861       -4.04925864
 C            0.42988221       -0.10390789       -4.15518085
 C            0.05485276        2.08049640       -3.44642764
 C           -0.56809346        0.94506180       -4.10951855
