   70
C70 / DATE: 7/ 1/2024 / Origin: Program Fullerene / C70 from database
 C            1.20591051        0.00798034        4.63969613
 C            2.55313639       -0.16047263        4.13149000
 C            2.62637226       -1.47360477        3.51930221
 C            0.41442963       -1.12736114        4.18932838
 C            1.27605980       -2.00338352        3.42657897
 C           -0.77526660       -0.61448689        3.55314062
 C            0.48397027        1.21865555        4.29749200
 C           -0.79664417        0.82658401        3.72179318
 C            1.18046824        2.28033241        3.73476896
 C            3.06861101        0.80320044        3.17145679
 C            2.43400463        2.02745579        3.02980335
 C            3.38987814       -1.34559187        2.29388915
 C            3.45052501        0.07215413        1.97395449
 C            3.09633801       -2.22246656        1.26751930
 C            0.84505063       -2.49104108        2.19341786
 C            1.82390844       -2.93063871        1.30997264
 C           -1.17085190       -1.13374438        2.33150928
 C           -0.40506127       -2.10868845        1.68332274
 C           -2.08557215       -0.40659071        1.58826053
 C           -1.37808918        1.60827896        2.72075351
 C           -2.12675969        0.98660409        1.71789997
 C            0.43842644        3.24557538        2.95104630
 C           -0.89113175        2.89090375        2.48592300
 C            2.29468867        2.58366556        1.69726190
 C            1.23509926        3.55946889        1.77540216
 C            3.01958765        0.51045004        0.71453987
 C            2.36049255        1.73588865        0.58996815
 C            3.22484900       -1.74398169       -0.08908790
 C            3.01270392       -0.38977526       -0.34987104
 C            1.46585334       -3.23631088       -0.06178346
 C            2.53766357       -2.72499918       -0.89873337
 C           -0.78617213       -2.50234622        0.39198340
 C            0.15378496       -3.06252105       -0.48523597
 C           -2.68370017       -1.01293718        0.49377269
 C           -2.03016651       -2.09767695       -0.10529930
 C           -3.64767410       -0.28624615       -0.19692616
 C           -2.63997724        1.75852224        0.67069592
 C           -3.52500112        1.15788209       -0.22332541
 C           -1.02105695        3.45296266        1.15581529
 C            0.33009216        3.66222049        0.65967792
 C           -1.94800785        2.90639231        0.27532412
 C            1.59081264        2.00692419       -0.55514533
 C            0.67044823        3.07058910       -0.54847271
 C            2.44727161       -0.02237953       -1.57242590
 C            1.63024735        1.11742275       -1.64294941
 C            2.23514813       -2.38060762       -2.19950447
 C            2.39443919       -0.98840294       -2.57915615
 C           -0.09632762       -3.06370184       -1.86103475
 C            0.95687033       -2.80050638       -2.73912518
 C           -2.42987021       -2.56551677       -1.35546104
 C           -1.40665192       -2.93354466       -2.31267993
 C           -4.08745362       -0.71325228       -1.50766324
 C           -3.48299996       -1.89002013       -2.08852193
 C           -3.50429680        1.55530271       -1.62310241
 C           -3.86489192        0.39796234       -2.41936578
 C           -1.69869561        3.09769979       -1.08087426
 C           -0.31424425        3.11563779       -1.52193482
 C           -2.47694372        2.37077871       -2.06472867
 C            0.81098765        1.34132009       -2.76458423
 C           -0.20969411        2.27255942       -2.68569634
 C           -1.55518371        1.87903769       -3.08099071
 C            1.55592287       -0.77651628       -3.73720884
 C            0.71986525       -1.95813224       -3.89422976
 C            0.69222902        0.37574084       -3.75545137
 C           -1.67498369       -2.19976695       -3.54565441
 C           -2.93745191       -1.50981122       -3.38086646
 C           -2.94992020       -0.05939046       -3.45061096
 C           -1.75186988        0.62678406       -3.66665594
 C           -0.63488808       -1.52182795       -4.16170999
 C           -0.63864678       -0.06469474       -4.15069317
