   70
C70 / DATE: 7/ 1/2024 / Origin: Program Fullerene / C70 from database
 C            1.30074656        0.09049237        4.73125898
 C            2.50321435       -0.03309148        3.93384126
 C            2.52445625       -1.37716429        3.38241256
 C            0.47319223       -1.07484490        4.46112270
 C            1.20940529       -1.94829312        3.55643017
 C           -0.84009550       -0.60228613        4.04985013
 C            0.47489272        1.26524511        4.55062695
 C           -0.88590126        0.82231609        4.28101600
 C            0.81626530        2.21110354        3.50447842
 C            2.72420533        0.89311552        2.83253674
 C            1.79352725        1.88707732        2.55838883
 C            3.04566602       -1.28584798        2.03935722
 C            3.25965505        0.12241663        1.73314956
 C            2.50558772       -2.09111358        1.04317630
 C            0.54709752       -2.45069433        2.43960989
 C            1.24663638       -2.67954210        1.24286377
 C           -1.37703942       -1.11408368        2.87725270
 C           -0.83305035       -2.29234388        2.38595810
 C           -2.09422692       -0.28903273        1.99901163
 C           -1.41706991        1.67620993        3.23567066
 C           -0.44919630        2.74174541        3.04384259
 C           -2.01339360        1.10281341        2.10981591
 C           -0.46754479        3.41268900        1.84022889
 C            1.65867521        2.35844898        1.24915860
 C            0.72442480        3.35936138        1.01128969
 C            3.04533372        0.54321783        0.42404382
 C            2.17932300        1.61944855        0.17257226
 C            2.90996634       -1.79781395       -0.24835155
 C            3.23176464       -0.41487951       -0.56147865
 C            2.19089255       -2.35429234       -1.37116316
 C            0.54353288       -3.23036262        0.15765981
 C            1.01893738       -3.06103409       -1.15445064
 C           -1.53367388       -2.96785616        1.41017716
 C           -0.77334650       -3.64108904        0.38128099
 C           -2.60742424       -0.85796974        0.83068026
 C           -2.59447180       -2.24850163        0.73503013
 C           -2.70085531       -0.07821012       -0.33062854
 C           -2.17435708        1.89421723        0.96943302
 C           -1.57127964        3.15188209        0.94361935
 C           -2.59510549        1.31362292       -0.23256456
 C            0.29419249        3.63019460       -0.34283929
 C           -1.16226350        3.70880651       -0.32296388
 C            1.76012629        1.89260993       -1.14815834
 C            0.91437922        2.98729836       -1.40625489
 C            2.79103884       -0.15006486       -1.90749482
 C            2.24712386       -1.38486655       -2.45552401
 C            2.15915356        1.04601533       -2.19901842
 C            1.20217338       -1.31769090       -3.37820447
 C            0.18476599       -3.26132466       -2.25318093
 C            0.19745575       -2.28931617       -3.33636325
 C           -1.68699570       -3.83511925       -0.72553937
 C           -2.78020732       -2.88677735       -0.54908917
 C           -1.18750716       -3.68417772       -2.06910783
 C           -2.70719199       -0.68058016       -1.59950042
 C           -1.18348450       -1.88601388       -3.56933505
 C           -2.83189517       -2.05763272       -1.72888791
 C           -2.03570216       -2.71462672       -2.74164617
 C           -2.30756055        0.05635861       -2.71363720
 C           -1.45549595       -0.52830748       -3.66570192
 C           -2.62152548        2.08874531       -1.39803348
 C           -1.85306678        3.32533317       -1.45517733
 C           -2.49301644        1.43298633       -2.68849455
 C            0.31313040        3.13125806       -2.65591932
 C           -1.12530042        3.32915681       -2.70724350
 C           -1.68257258        2.28358943       -3.54093421
 C            1.52900689        1.11796362       -3.43320499
 C            0.91771645       -0.08654970       -3.97395967
 C           -0.46646810        0.24407247       -4.25923481
 C            0.65530886        2.22749324       -3.72696881
 C           -0.58468469        1.68609043       -4.26658994
