   70
C70 / DATE: 7/ 1/2024 / Origin: Program Fullerene / C70 from database
 C            1.58694177        0.00555362        4.48480216
 C            0.79218217       -1.18955167        4.28195104
 C            1.35719557       -1.93243022        3.16665654
 C            2.66485879       -0.01825110        3.51697998
 C            2.55201085       -1.23321361        2.73112562
 C            2.64700320        1.24370743        2.80538294
 C            0.74455506        1.14806873        4.17274328
 C            1.39374329        1.90657165        3.12002556
 C           -0.59309262       -0.77779853        4.19201540
 C           -0.59834998        0.65580326        3.93721278
 C           -1.44641028       -1.57086017        3.44650537
 C            0.48905557       -2.45747759        2.21237090
 C           -0.86702359       -2.54210760        2.52689283
 C            0.87868960       -2.49157948        0.87074255
 C            2.82109106       -1.14434134        1.37264777
 C            2.11283648       -1.94974552        0.47988934
 C            3.05025426        1.24108820        1.48035909
 C            3.40866623        0.02453950        0.89649605
 C            2.56926783        2.24970961        0.65385065
 C            0.62342563        2.39238577        2.06557786
 C            1.26322771        2.71677702        0.86229636
 C           -1.30654319        1.14489016        2.84092166
 C           -0.75755231        2.17738311        2.07398111
 C           -2.52271767       -0.92858805        2.72326129
 C           -2.38237856        0.40386395        2.33957901
 C           -1.83918523       -2.75751350        1.46630325
 C           -2.97592160       -1.89566463        1.74657419
 C           -0.02311811       -2.94342539       -0.09435725
 C           -1.39852616       -2.89098703        0.15437352
 C            0.43633891       -3.19922229       -1.37680563
 C            2.48449465       -1.94572223       -0.87205571
 C            1.66879094       -2.57435967       -1.81135472
 C            3.87715279        0.03331198       -0.40866541
 C            3.36136688       -0.96092634       -1.33378504
 C            3.19670943        2.42388269       -0.57329814
 C            3.94601833        1.30466607       -1.11230001
 C            2.46692420        3.02582344       -1.66508382
 C            0.51648493        3.25576976       -0.19653305
 C            1.06474101        3.31576763       -1.47456650
 C           -1.52735388        2.75237838        1.07641363
 C           -0.87094095        3.28164576       -0.10527674
 C           -3.09644225        0.86876766        1.23126717
 C           -2.74698916        2.08726248        0.65202676
 C           -3.74095771       -1.44307350        0.68862376
 C           -3.92665516       -0.00996453        0.53256879
 C           -2.29947962       -2.65702734       -0.89314175
 C           -3.49333463       -1.98626578       -0.63407376
 C           -0.49784170       -3.13716105       -2.48224872
 C           -1.85925236       -2.72449002       -2.21201093
 C            1.38760980       -1.87814414       -3.05912090
 C            0.04622323       -2.22128458       -3.47210129
 C            3.04041832       -0.27846180       -2.57686772
 C            3.50285435        1.08845503       -2.47886723
 C            2.58402843        2.14862420       -2.82062972
 C            1.82279328       -0.56521740       -3.18298330
 C            0.33303031        2.70653116       -2.57522675
 C            1.24088196        1.79411210       -3.23990806
 C            0.87015663        0.45689959       -3.35605003
 C           -1.64557584        2.87012068       -1.26471818
 C           -2.88013589        2.27755896       -0.78728053
 C           -0.97889932        2.30772656       -2.35105974
 C           -4.20614969        0.23506688       -0.87225136
 C           -3.96320351       -1.00283237       -1.59404036
 C           -3.49157524        1.29681736       -1.55191171
 C           -2.16872087       -1.62655955       -3.11830666
 C           -0.90550808       -1.14702575       -3.64059745
 C           -0.49529524        0.15161793       -3.35474267
 C           -1.42173941        1.08474719       -2.86606978
 C           -3.12670544       -0.69948953       -2.74119465
 C           -2.74844824        0.70286781       -2.65293296
