   70
C70 / DATE: 7/ 1/2024 / Origin: Program Fullerene / C70 from database
 C            1.40582472       -0.15413238        4.51159143
 C            2.62514699       -0.30029521        3.73868562
 C            2.55528602       -1.57012210        3.03929535
 C            0.54665639       -1.29064346        4.21258406
 C            1.23262865       -2.12724386        3.25189828
 C           -0.76673988       -0.78272433        3.87099808
 C            0.61354322        1.05142256        4.35313905
 C           -0.76763244        0.64281292        4.15022848
 C            1.12832430        2.12038628        3.62537859
 C            2.97233084        0.72126258        2.76660943
 C            2.31179458        1.94005813        2.78920306
 C            2.99013610       -1.35626941        1.66829926
 C            3.20236439        0.06844019        1.48813894
 C            2.34134217       -2.05280622        0.65560538
 C            0.54322992       -2.58071103        2.13641643
 C            1.28568213       -2.89164747        1.00464180
 C           -1.40065842       -1.25058737        2.72151331
 C           -0.81714327       -2.28959467        1.98143992
 C           -2.43664072       -0.49451840        2.16721413
 C           -1.62742823        1.46213570        3.43260174
 C           -2.53396980        0.86135398        2.46870550
 C            0.22080614        3.00916558        2.91789288
 C           -1.13604652        2.70716741        2.86084221
 C            2.07508978        2.63292820        1.53645764
 C            0.90696052        3.47324081        1.72300121
 C            2.75403188        0.66309402        0.30933599
 C            2.25102442        1.96599074        0.32240171
 C            2.36729905       -1.52681450       -0.63422991
 C            2.51442811       -0.14396718       -0.80011767
 C            1.86565974       -2.30525892       -1.67961785
 C            0.66114475       -3.61637304        0.00580145
 C            1.08687638       -3.41889784       -1.36778027
 C           -1.48476855       -2.81189041        0.86806803
 C           -0.78993627       -3.66495250        0.01037905
 C           -3.06810146       -0.94450460        1.01608890
 C           -2.64867002       -2.19351417        0.41535813
 C           -3.32108203        0.00409056       -0.06055562
 C           -2.72884949        1.80653794        1.38117027
 C           -1.88176652        2.95905670        1.63687937
 C           -2.88279718        1.31497064        0.08429108
 C            0.17270437        3.83663478        0.60625811
 C           -1.26373478        3.59054864        0.57018814
 C            1.64286123        2.47752971       -0.82819002
 C            0.69197228        3.49444826       -0.70481080
 C            2.19306199        0.44973201       -2.01698070
 C            1.71553209        1.76767050       -2.03156005
 C            1.81241807       -1.77143963       -2.96675541
 C            2.10058189       -0.36026523       -3.14675038
 C            0.69499180       -2.11120595       -3.84473819
 C           -0.04237294       -3.75312143       -2.21348490
 C           -1.22458260       -3.80864365       -1.36892787
 C           -0.33354743       -2.89158034       -3.33869823
 C           -2.91709962       -2.09080978       -1.01319193
 C           -3.12049073       -0.68610262       -1.31927805
 C           -2.19715190       -2.87344506       -1.89911917
 C           -1.61924729       -2.25529707       -3.08102311
 C           -2.36234520       -0.08135041       -2.31552625
 C           -1.75107601       -0.88092331       -3.29390817
 C           -2.24327634        1.95053996       -0.98634329
 C           -1.59405983        3.16949973       -0.77973006
 C           -0.44695603        3.50534943       -1.60127711
 C           -2.06150604        1.28333455       -2.20634409
 C            0.94860268        2.22729566       -3.10620706
 C           -0.31316015        2.87690786       -2.82167774
 C           -1.32941597        1.91845934       -3.20798403
 C            1.35360001        0.08726099       -4.30385679
 C            0.33255144       -0.90894315       -4.56836372
 C           -0.95121689       -0.29891447       -4.27398761
 C            0.69318265        1.36882807       -4.24375811
 C           -0.74620113        1.13135673       -4.27382789
