   70
C70 / DATE: 7/ 1/2024 / Origin: Program Fullerene / C70 from database
 C            1.63102044        0.20185995        4.99082176
 C            0.82639085       -1.00261038        5.06415309
 C            1.52710744       -2.04325047        4.33577425
 C            2.69545312       -0.03500491        4.02749954
 C            2.65724726       -1.42887718        3.65500883
 C            2.56827648        0.95680327        2.97977446
 C            0.78968098        1.26297193        4.46465620
 C            1.47383891        1.83934274        3.33308227
 C           -0.52807850       -0.66088856        4.66254967
 C           -0.53815891        0.73303816        4.24388182
 C           -1.26377372       -1.57869477        3.92632744
 C            0.79101331       -2.81979557        3.35440219
 C           -0.59311664       -2.71879268        3.30755416
 C            2.55816696       -1.76318189        2.24711855
 C            1.53525329       -2.78032818        2.10525022
 C            2.68608737        0.58711365        1.63797538
 C            2.63337493       -0.76715469        1.27496711
 C            2.29535611        1.53480174        0.68859642
 C            0.72002054        2.33206018        2.28287797
 C            1.38779342        2.51924094        1.08567914
 C           -1.20916760        1.08740459        3.07207609
 C           -0.65371857        2.05945272        2.22365160
 C           -2.24418858       -1.08384651        2.97605135
 C           -2.22464020        0.25398439        2.59744635
 C           -1.26125747       -2.98427809        2.04814255
 C           -2.41049764       -2.09978120        1.95260926
 C            0.84506125       -2.85225269        0.89788597
 C           -0.50613465       -3.21079428        0.90380601
 C            2.22241747       -1.09367677       -0.01682942
 C            1.36902526       -2.18044596       -0.21265691
 C            2.38214859        1.20583354       -0.66266925
 C            2.33695505       -0.14116152       -1.01965487
 C            2.06938146        2.17677992       -1.61435119
 C            0.74078254        3.26870100        0.12340678
 C            1.18901406        3.19329872       -1.25186464
 C           -1.36497870        2.47597049        1.08801090
 C           -0.71042356        3.24424562        0.12330478
 C           -2.92472130        0.61610994        1.45549868
 C           -2.52631944        1.80105117        0.72220120
 C           -2.85692380       -1.72443400        0.68712953
 C           -3.28187671       -0.41112419        0.48595566
 C           -1.18932133       -3.22984138       -0.30171863
 C           -2.43360336       -2.47753531       -0.40525423
 C            0.78408070       -2.37171001       -1.46538384
 C           -0.45468078       -3.00524367       -1.52867653
 C            2.03294855       -0.49585347       -2.33081669
 C            1.20530817       -1.60570255       -2.55876096
 C            2.19242083        1.85644689       -2.96254497
 C            2.25107236        0.45324036       -3.32820598
 C            1.30130510        2.51089692       -3.90492819
 C            0.02727755        3.46397002       -2.08378243
 C           -1.13529918        3.16418427       -1.26647343
 C            0.04745257        3.03181395       -3.39839929
 C           -2.81435488        1.56917385       -0.68822867
 C           -3.21531111        0.18610945       -0.84191967
 C           -2.00032154        2.14545248       -1.65346371
 C           -2.48597943       -1.91210856       -1.74424619
 C           -1.42863645       -2.55645274       -2.50434792
 C           -2.71027231       -0.54607670       -1.90828996
 C            0.46527560       -1.70387511       -3.74133739
 C           -0.96151223       -1.92627148       -3.63887995
 C            1.62494236        0.30679557       -4.62790423
 C            0.99074618        1.56967261       -4.96354209
 C            0.63245778       -0.72504204       -4.79730722
 C           -0.98973742        2.11028009       -3.83102137
 C           -1.77938568        1.47990891       -2.86386230
 C           -2.12042809        0.11994170       -2.98824129
 C           -1.56126377       -0.66122944       -4.00291632
 C           -0.44646797        1.35231730       -4.94222851
 C           -0.66160337       -0.07295208       -4.97441894
