   70
C70 / DATE: 7/ 1/2024 / Origin: Program Fullerene / C70 from database
 C            1.14354874       -0.10824566        4.89395217
 C            2.35288205       -0.36794938        4.13708174
 C            2.17292114       -1.62930006        3.42838734
 C            0.29201227       -1.27609859        4.75617273
 C            0.82105336       -2.07971781        3.66428174
 C           -1.07440005       -0.80695424        4.66546640
 C            0.34101571        1.06233704        4.57357042
 C           -1.04618603        0.63952538        4.50851087
 C            0.80156472        1.97722179        3.63505030
 C            2.80547274        0.61521039        3.17060789
 C            2.11739525        1.81192281        3.02996850
 C            2.60582793       -1.43289698        2.06291521
 C            3.19307554       -0.10952912        1.97704174
 C            1.80163395       -1.86396086        1.00829539
 C           -0.00167174       -2.37053778        2.57575790
 C            0.52777133       -2.38081564        1.26880292
 C           -1.89908536       -1.33071583        3.60061091
 C           -1.38669914       -2.31429419        2.76098619
 C           -1.83729637        0.97268858        3.32898324
 C           -2.58332999       -0.21222214        2.97618533
 C           -0.10114974        2.43968009        2.59128718
 C           -1.26503592        1.72928050        2.31621723
 C            2.07036885        2.43834484        1.72089727
 C            0.71829036        2.90622154        1.49674623
 C            3.14830868        0.51966574        0.74296719
 C            2.73010003        1.85323684        0.64437772
 C            2.08986091       -1.36935390       -0.26534661
 C            2.98089441       -0.29721965       -0.36770503
 C            1.25242680       -1.68109553       -1.34168544
 C           -0.29576876       -2.74120387        0.19770482
 C            0.04269414       -2.35373275       -1.11183601
 C           -2.20464988       -2.68431750        1.70927172
 C           -1.59346628       -3.15273048        0.48651434
 C           -3.00303743       -0.39513799        1.66622265
 C           -3.20808477       -1.71833439        1.30139979
 C           -1.63320091        1.49530997        0.98589066
 C           -2.58613452        0.51266685        0.67639024
 C            0.23333565        2.82958419        0.20436294
 C           -0.98584174        2.18898132       -0.04273216
 C            2.42702311        2.33701240       -0.63206554
 C            1.16027487        2.91326760       -0.82626582
 C            3.22671127        0.26994463       -1.60353243
 C            3.05799710        1.70354855       -1.69920776
 C            1.58301947       -1.22540884       -2.62432876
 C            2.62228624       -0.31400806       -2.77891123
 C            0.68254749       -1.38368759       -3.67062245
 C           -0.88167203       -2.52383296       -2.15897507
 C           -0.58858818       -2.02848069       -3.42434828
 C           -2.62117302       -3.03428677       -0.52262587
 C           -3.55877815       -2.01977676       -0.05835062
 C           -2.23236868       -2.65395205       -1.85597168
 C           -2.90738504        0.26206747       -0.66887206
 C           -3.51864545       -0.94453715       -1.02007533
 C           -3.13184990       -1.58423489       -2.25646593
 C           -1.41181527        2.03602315       -1.36523541
 C           -2.33311303        1.03468992       -1.68549111
 C            0.66255930        3.11817665       -2.10599824
 C           -0.69410178        2.67751991       -2.38088583
 C            2.67203718        2.01555349       -3.05907497
 C            2.48984831        0.75260392       -3.75765015
 C            1.48425497        2.81116772       -3.26027176
 C            0.45091038       -0.28004514       -4.59911131
 C           -0.72189159        2.15996241       -3.73914134
 C            1.26515165        0.84057166       -4.52780403
 C            0.64922346        2.12688889       -4.22994968
 C           -1.61420018       -1.24445388       -4.09607622
 C           -2.73512884       -0.77955866       -3.30367309
 C           -2.48094652        0.62315920       -3.01633070
 C           -0.98276829       -0.07725382       -4.67331361
 C           -1.55683480        1.09584619       -4.03294737
