   70
C70 / DATE: 7/ 1/2024 / Origin: Program Fullerene / C70 from database
 C            1.07738138       -0.16442594        4.53907929
 C            2.30837503       -0.46607435        3.84290785
 C            2.18749253       -1.80424721        3.28718598
 C            0.22867755       -1.34358731        4.46525838
 C            0.82263851       -2.24521097        3.49897489
 C           -1.12780974       -0.89524937        4.24884786
 C            0.28797961        0.96684418        4.09301805
 C           -1.10223823        0.55399914        4.12149161
 C            0.72079057        1.73846965        3.01707650
 C            2.73042684        0.41089395        2.76965232
 C            2.00346370        1.55993187        2.47441246
 C            2.69390782       -1.76613654        1.92500567
 C            3.15930418       -0.41732889        1.66229384
 C            1.98541981       -2.41979322        0.92731342
 C            0.09223728       -2.66278852        2.38878789
 C            0.79801024       -3.07848008        1.26215524
 C           -1.85769229       -1.41444734        3.10983689
 C           -1.26827593       -2.34349470        2.25602551
 C           -1.95306349        0.91286601        2.99783324
 C           -2.57652298       -0.30676550        2.51704389
 C           -0.23936266        2.42679765        2.27345462
 C           -1.48458795        1.83248886        2.06356491
 C            0.19258075        3.40092447        1.38693155
 C            2.31358319        2.22524108        1.28822163
 C            1.58630033        3.37613644        1.00112283
 C            3.02567767        0.10646314        0.38139593
 C            2.89896655        1.48678922        0.24603334
 C            2.20003818       -2.03091286       -0.39382832
 C            2.60409878       -0.72040554       -0.66736187
 C            1.66958049       -2.81171321       -1.41089604
 C            0.10295060       -3.75804635        0.27273009
 C            0.65659940       -3.79059018       -1.06676839
 C           -1.89522762       -2.58164601        1.02965016
 C           -1.32099490       -3.50883459        0.16121675
 C           -2.90393332       -0.39225819        1.17299786
 C           -2.79459447       -1.62903270        0.53432182
 C           -2.02296953        1.81158585        0.77360244
 C           -2.87834588        0.77159431        0.40588087
 C           -0.57437701        3.62583474        0.17652953
 C           -1.51449742        2.67473989       -0.20094616
 C            1.69058593        4.00010301       -0.30114916
 C            0.33797813        4.15015010       -0.81940280
 C            3.01347052        2.02446506       -1.03078483
 C            2.48602581        3.34488072       -1.31342529
 C            2.38968732       -0.16958160       -1.93960212
 C            2.71485113        1.16945394       -2.16698756
 C            1.26967307       -2.17922885       -2.65165776
 C            1.59935001       -0.84870631       -2.87326481
 C           -0.44016719       -3.65730055       -2.00933189
 C           -1.66724798       -3.50337953       -1.25207106
 C           -0.07759462       -2.63276535       -2.97086998
 C           -3.30512662       -1.75931425       -0.75386521
 C           -2.62265206       -2.61111411       -1.71069837
 C           -3.38282546        0.73127195       -0.88749380
 C           -3.72290534       -0.55952366       -1.45876721
 C           -1.70613803        2.38720284       -1.55711864
 C           -2.73475918        1.52073091       -1.91941649
 C            0.30759765        3.58355537       -2.15152654
 C            1.67458140        3.24517172       -2.51189219
 C            1.92706303        1.94747943       -3.11275135
 C           -0.70568925        2.69128791       -2.49017129
 C            0.80824231       -0.12375701       -3.75954086
 C            0.87958683        1.32407537       -3.77146441
 C           -0.47083480        1.81574116       -3.54836736
 C           -1.03107893       -1.69830019       -3.36942853
 C           -2.33955830       -1.80312399       -2.88995469
 C           -3.16994672       -0.61462914       -2.80146916
 C           -2.58046963        0.67621173       -3.09428851
 C           -0.58818325       -0.49743944       -3.92352570
 C           -1.38550336        0.71625186       -3.79176675
