   70
C70 / DATE: 7/ 1/2024 / Origin: Program Fullerene / C70 from database
 C            1.38139492        0.12450541        4.88849696
 C            0.61351408       -1.09603978        4.71848216
 C            1.50197495       -2.09259087        4.17008484
 C            2.63383633       -0.03943067        4.16745461
 C            2.74957904       -1.43166050        3.80960059
 C            2.66951550        0.95027338        3.10709308
 C            0.64443382        1.19909211        4.24963514
 C            1.51325011        1.81180650        3.27477693
 C           -0.59119794       -0.76723013        3.97835611
 C           -0.61464803        0.67129998        3.77590650
 C           -1.01096172       -1.58272959        2.92750537
 C            1.05672084       -2.83982820        3.01214616
 C           -0.24452329       -2.69515628        2.54206546
 C            3.03368108       -1.76334869        2.42862726
 C            2.13932545       -2.84156202        2.04427380
 C            3.03476608        0.58541681        1.80522163
 C            3.30245260       -0.76122508        1.49965595
 C            2.72148314        1.48226711        0.77127996
 C            0.94688244        2.32595627        2.12262871
 C            1.78840249        2.49406774        1.04023727
 C           -1.11705282        1.14847841        2.57000204
 C           -0.41670521        2.13088829        1.86346352
 C           -1.93119583       -1.04751141        2.02404849
 C           -1.99781706        0.34225369        1.86778340
 C           -2.48574560       -1.87583544        1.04890643
 C           -0.52595441       -3.30976227        1.32823691
 C           -1.72947805       -2.95222095        0.60480257
 C            1.82964465       -3.01108847        0.69433084
 C            0.55037593       -3.45465050        0.35745765
 C            3.35809877       -1.15645933        0.17010501
 C            2.57818141       -2.31233847       -0.25243532
 C            3.05221948        1.16133835       -0.55284052
 C            3.28883334       -0.16508960       -0.88047306
 C            2.68829388        2.01989535       -1.58694168
 C            1.32745887        3.30760802        0.02415925
 C            1.95642865        3.22492574       -1.26942620
 C           -0.92399324        2.56855577        0.62782368
 C           -0.11056032        3.37443293       -0.16876353
 C           -2.64087689        0.87389070        0.76067485
 C           -2.00905651        1.89833188        0.04258392
 C           -3.42678763       -1.34334758        0.17337531
 C           -3.61502130        0.09316711        0.16073098
 C           -3.36033063       -1.74568135       -1.21807951
 C           -1.43898479       -3.06221051       -0.81669056
 C           -0.00018250       -3.16077599       -0.95850084
 C           -2.15650322       -2.26030383       -1.69157449
 C            2.00400669       -2.00765755       -1.55578360
 C            2.56903088       -0.75015778       -2.00118197
 C            0.66275008       -2.27666217       -1.79852653
 C            2.09133014        1.44896032       -2.78635710
 C            1.81186636        0.08264155       -2.81162889
 C            0.92552428        3.40937029       -2.27299843
 C           -0.36026039        3.47108697       -1.59398834
 C            1.11674837        2.40060553       -3.29946994
 C           -2.33714475        2.13087382       -1.30635761
 C           -1.42877994        2.78190591       -2.14984128
 C           -4.12097551        0.45758241       -1.14435240
 C           -4.06114101       -0.73389035       -1.98100966
 C           -3.46405602        1.52486917       -1.86473051
 C           -3.51588412       -0.34117094       -3.26151195
 C           -3.42881322        1.10793228       -3.25459988
 C           -1.47164253       -1.57561389       -2.70218165
 C           -0.07684607       -1.42396883       -2.62376082
 C            0.56734922       -0.35509507       -3.26924070
 C           -2.20376192       -0.83946876       -3.63284919
 C           -0.00997538        1.91763259       -3.94522516
 C           -1.30503552        2.37351498       -3.47936009
 C           -2.27410412        1.46162594       -4.04760959
 C           -0.14835028        0.48402251       -4.11643834
 C           -1.55500612        0.23068702       -4.35728397
