   70
C70 / DATE: 7/ 1/2024 / Origin: Program Fullerene / C70 from database
 C            1.27842643        0.00482489        5.03053247
 C            0.51597583       -1.19126478        4.72834050
 C            1.37319603       -2.09770103        3.99894551
 C            2.55469676       -0.10588195        4.34620080
 C            2.62361821       -1.40878851        3.72551235
 C            2.68982015        1.05286057        3.49526019
 C            0.56529585        1.14104693        4.46310428
 C            1.47077389        1.84022642        3.58985383
 C           -0.71689150       -0.77339900        4.09765887
 C           -0.67179611        0.66218709        3.89907276
 C           -1.24523021       -1.52467154        3.06127500
 C            0.88441452       -2.63291038        2.74298432
 C           -0.44735590       -2.46423634        2.38794994
 C            2.86211203       -1.47807951        2.29354461
 C            1.88364616       -2.38607601        1.72342160
 C            3.25424350        0.91975695        2.23395839
 C            3.18559832       -0.32712573        1.58023082
 C            3.19398859        2.06721548        1.45680965
 C            0.98510251        2.40823879        2.41409233
 C            1.95762589        2.83409213        1.51654714
 C           -1.10184655        1.15608662        2.66620050
 C           -0.26743377        2.00157390        1.91293342
 C           -2.25754159       -0.92265773        2.33073469
 C           -2.09598914        0.43199176        2.00384294
 C           -2.94493316       -1.74671519        1.46055012
 C           -0.79692565       -2.78019108        1.07583772
 C           -2.14882267       -2.73563813        0.76457287
 C            1.44828159       -2.17208831        0.41602650
 C            0.14573761       -2.54685857        0.06353846
 C            3.04841439       -0.36873965        0.18886445
 C            2.13868510       -1.26480687       -0.39283702
 C            3.59712407        1.98933019        0.07490503
 C            3.53555535        0.69328173       -0.55758181
 C            1.58638848        3.17119373        0.16129600
 C            2.72880853        2.87903778       -0.67353734
 C           -0.61127238        2.27508802        0.57739242
 C            0.33314303        2.81221000       -0.30763636
 C           -2.59817708        0.92026665        0.79531255
 C           -1.85314092        1.86264517        0.08356740
 C           -3.85358873       -1.14888427        0.51238435
 C           -3.64248910        0.23820073        0.16936906
 C           -2.56393438       -2.73758635       -0.61846357
 C           -3.76314501       -1.92116703       -0.71044094
 C           -0.27215005       -2.37396589       -1.26154779
 C           -1.60913174       -2.61772702       -1.61742727
 C            1.74721411       -1.11371530       -1.72972568
 C            0.61707994       -1.80914246       -2.18686704
 C            3.03243360        0.90594963       -1.89339194
 C            2.47691873        2.25035001       -1.94840264
 C            2.31308618       -0.09898762       -2.52060536
 C            0.13725111        2.70045215       -1.68950960
 C            1.22089569        2.38818398       -2.52686877
 C           -2.20396571        2.18150796       -1.22922323
 C           -1.16345014        2.57296839       -2.16238710
 C           -3.83093460        0.35328903       -1.26676758
 C           -3.87744886       -0.99583790       -1.82170340
 C           -3.16024843        1.35635854       -1.94965142
 C           -2.06707967       -2.24741906       -2.87789888
 C           -3.15361777       -1.28217999       -2.97089032
 C            0.26826377       -1.74512928       -3.53541893
 C           -1.11353029       -1.93594015       -3.91506189
 C            1.64627367        0.29433263       -3.67349819
 C            0.99847492        1.59520984       -3.64810003
 C            0.75576382       -0.63594624       -4.31982766
 C           -1.41614258        1.90092545       -3.42788161
 C           -2.61976368        1.09398501       -3.27560781
 C           -2.67996746       -0.19376000       -3.80354563
 C           -1.56480775       -0.71652863       -4.57276197
 C           -0.34203434        1.43127282       -4.17175614
 C           -0.39954143        0.11560652       -4.78579895
