   70
C70 / DATE: 7/ 1/2024 / Origin: Program Fullerene / C70 from database
 C            1.14635669       -0.13859239        4.55732481
 C            2.47675086       -0.35350435        4.02394891
 C            2.48431001       -1.66199863        3.38796442
 C            0.33869306       -1.29268264        4.19209920
 C            1.11336022       -2.10618519        3.28320223
 C           -0.94231027       -0.80637653        3.74260591
 C            0.41087002        1.05367669        4.17158633
 C           -0.94421550        0.64386729        3.85598310
 C            1.02131385        2.01737430        3.38414107
 C            3.02323360        0.60064930        3.07482785
 C            2.32694836        1.76577070        2.78370092
 C            3.24933585       -1.55413854        2.16549082
 C            3.61455277       -0.15761194        1.98804955
 C            2.82677158       -2.25206252        1.03880346
 C            0.60844262       -2.37769721        2.01464433
 C            1.50154813       -2.71091624        0.99059008
 C           -1.52925734       -1.37033342        2.61804866
 C           -0.72731785       -2.07161324        1.70259291
 C           -2.67656091       -0.73926608        2.16057490
 C           -1.70731285        1.36749126        2.93894398
 C           -2.79088726        0.69540175        2.37291452
 C            0.22193161        2.73831557        2.41283189
 C           -1.13518936        2.45593339        2.25956659
 C            2.28646384        2.23896166        1.41003237
 C            1.03222469        2.94014233        1.22069370
 C            3.60695732        0.35022991        0.69092507
 C            2.76904928        1.43416168        0.38667729
 C            3.47179269       -1.92659072       -0.15077342
 C            3.92355001       -0.55435783       -0.31619504
 C            2.93607818       -2.37931384       -1.42046390
 C            0.99017241       -3.22447887       -0.19614590
 C            1.71101348       -3.02658574       -1.44345438
 C           -1.21329457       -2.34816700        0.41666907
 C           -0.42708060       -3.07101144       -0.46940386
 C           -3.17224975       -1.02565830        0.83334870
 C           -2.34996286       -1.69654036       -0.06279722
 C           -3.49746520        1.25648551        1.23816668
 C           -3.90867469        0.14502151        0.39192496
 C           -1.75808711        2.97064380        1.12307258
 C           -3.01804602        2.41936109        0.65923177
 C            0.40334898        2.91487316       -0.02008617
 C           -0.94090770        3.25444172       -0.04798150
 C            2.20557532        1.55812826       -0.88854269
 C            0.93467857        2.12424647       -1.04662156
 C            3.70808301       -0.17742741       -1.69423364
 C            3.20649796       -1.34595314       -2.39996467
 C            2.80714849        0.92213235       -1.96179938
 C            2.13248835       -0.90072459       -3.26323213
 C            1.99362659        0.53894088       -3.09185863
 C            0.73696672       -2.70474288       -2.47923348
 C           -0.58987538       -2.85788348       -1.89548759
 C            0.97598219       -1.66796684       -3.38795293
 C           -2.54095344       -1.51827729       -1.43916813
 C           -1.62404078       -2.05236857       -2.35625678
 C           -4.07604526        0.34330466       -0.96905997
 C           -3.55413224       -0.66092243       -1.87815538
 C           -3.05795801        2.56758071       -0.78582627
 C           -1.72823502        2.96983474       -1.22532953
 C           -3.76396689        1.64415917       -1.54582819
 C            0.18800591        1.87841808       -2.21736635
 C            0.72987491        1.08902847       -3.24720621
 C           -1.14243331        2.32546125       -2.30899622
 C           -0.11541699       -1.06396424       -4.00362621
 C           -1.45325868       -1.45206189       -3.60134987
 C           -0.12817733        0.38668427       -4.08231044
 C           -3.43825160       -0.01429145       -3.16752901
 C           -3.33433966        1.41326102       -2.91312772
 C           -1.99095497        1.81420160       -3.29097744
 C           -2.33322851       -0.37997753       -4.02296509
 C           -1.50391022        0.80406022       -4.19987171
