   70
C70 / DATE: 7/ 1/2024 / Origin: Program Fullerene / C70 from database
 C            1.56484217       -0.11115962        5.08096045
 C            0.72798887       -1.28713822        5.21436900
 C            1.25504859       -2.29619548        4.31865622
 C            2.53070476       -0.35948981        4.01938465
 C            2.29400309       -1.68575992        3.50243836
 C            2.46331530        0.75264568        3.09772543
 C            0.71546372        0.97407201        4.63477192
 C            1.42230743        1.64542610        3.57040478
 C           -0.60371150       -0.94820654        4.73522639
 C           -0.59381282        0.43762757        4.32048997
 C            0.12317274       -2.88755614        3.63467119
 C           -0.98318665       -1.94800969        3.76135378
 C            0.35823276       -3.43081118        2.38317838
 C            2.23910164       -1.87947080        2.12396981
 C            1.55201415       -3.00028351        1.67002696
 C            2.52655960        0.51566746        1.72204134
 C            2.44339233       -0.80196708        1.24260708
 C            2.14703462        1.56857882        0.87501550
 C            0.67604066        2.26324879        2.58968105
 C            1.35118152        2.57729968        1.42633536
 C           -1.15146368        0.78309223        3.09086998
 C           -0.67538101        1.92685193        2.45503621
 C           -1.64593847       -1.54957539        2.60276910
 C           -1.80699891       -0.18149693        2.31882413
 C           -0.71792268       -3.40659445        1.41188923
 C           -1.73935729       -2.47414259        1.56440046
 C            1.28261559       -3.14363122        0.25743323
 C           -0.09758774       -3.55704727        0.10800392
 C            2.31358437       -1.00567705       -0.13641099
 C            1.76751237       -2.19923594       -0.62678939
 C            2.14572952        1.36411948       -0.51079760
 C            2.42931556        0.08867750       -0.99779045
 C            1.61082896        2.34216085       -1.36503317
 C            0.70795624        3.46727022        0.59308492
 C            1.04688840        3.48546640       -0.80692681
 C           -1.33106284        2.38441599        1.31349400
 C           -0.73868431        3.46736234        0.67067285
 C           -2.35787658        0.20149802        1.08817911
 C           -2.06927152        1.46506088        0.55157376
 C           -2.50556079       -2.15600301        0.45507009
 C           -2.91659044       -0.77763894        0.27177157
 C           -0.78788899       -3.11810979       -1.01417863
 C           -2.09392293       -2.65794055       -0.84528952
 C            1.26089119       -2.22033443       -1.92051791
 C           -0.05536793       -2.67322760       -2.11800446
 C            2.42400731       -0.13862866       -2.37042906
 C            1.87350361       -1.39053356       -2.84967253
 C            1.42460938        2.06880327       -2.72724982
 C            1.97004317        0.90944569       -3.26490357
 C            0.40951194        2.71169905       -3.44299839
 C           -0.07695971        4.12423506       -1.46061960
 C           -1.23779176        3.89407033       -0.61369228
 C           -0.42851518        3.69685581       -2.79142644
 C           -2.33163342        1.72415452       -0.80757222
 C           -2.11301862        2.99694362       -1.32738102
 C           -1.77014306        3.13120250       -2.72755292
 C           -3.03660141       -0.54447008       -1.15772609
 C           -2.67597268       -1.77654061       -1.84110035
 C           -2.61904415        0.67099459       -1.68220220
 C           -0.76656129       -2.30109264       -3.25707942
 C           -2.07535500       -1.69671972       -3.08660343
 C            1.25778460       -1.15675369       -4.13851528
 C            1.30406875        0.27256018       -4.39431522
 C           -0.09961449       -1.60697325       -4.34173630
 C           -0.49164693        1.91511420       -4.25227537
 C           -1.76893564        1.94277769       -3.55518469
 C           -2.27537423        0.75397638       -3.04049756
 C           -2.03600904       -0.41396254       -3.76139229
 C           -0.03411745        0.70809664       -4.75980595
 C           -0.91037378       -0.44909353       -4.68270923
