   70
C70 / DATE: 7/ 1/2024 / Origin: Program Fullerene / C70 from database
 C            1.24355824        0.19762585        4.63709741
 C            2.48758035       -0.00460421        3.92602690
 C            2.48498397       -1.36553765        3.41367302
 C            0.41509180       -0.97982811        4.41996432
 C            1.13916103       -1.87486315        3.53293871
 C           -0.90825207       -0.52885133        4.01793853
 C            0.44727263        1.36104965        4.31206359
 C           -0.92153782        0.91496690        4.11627687
 C            0.80770716        2.16993274        3.15834085
 C            2.82195704        0.87039777        2.81349804
 C            1.91661416        1.83680378        2.37613339
 C            3.08647884       -1.33387055        2.10012711
 C            3.48209870        0.03926961        1.82760567
 C            2.51421325       -2.06665839        1.06540506
 C            0.48973555       -2.33963074        2.39485765
 C            1.19511913       -2.52684486        1.19558640
 C           -1.50563273       -1.12219393        2.90995785
 C           -0.89732593       -2.24234961        2.35209984
 C           -2.39171876       -0.37811799        2.12372826
 C           -1.47088258        1.66665506        3.00740089
 C           -0.43155062        2.53951540        2.49742403
 C           -2.27132179        1.01700006        2.08164146
 C           -0.40126187        2.79914843        1.13314244
 C            1.93194394        2.21561392        1.03154731
 C            0.83580886        2.91524835        0.51302337
 C            3.50489721        0.45526712        0.50367971
 C            2.88754933        1.66071436        0.16709855
 C            3.02579637       -1.83388066       -0.20520526
 C            3.61981833       -0.53349359       -0.47023229
 C            2.25887995       -2.21418333       -1.37436257
 C            0.49304312       -2.97375609        0.06794743
 C            0.94770979       -2.64559933       -1.21614341
 C           -1.57363817       -2.93821122        1.36721244
 C           -0.80671405       -3.44053849        0.24388868
 C           -3.09380479       -1.03239787        1.10300676
 C           -2.79908115       -2.36977616        0.83684657
 C           -3.77802944       -0.27380990        0.14809664
 C           -2.52005192        1.67014860        0.88354851
 C           -1.52643846        2.50760352        0.35224860
 C           -3.51444000        1.15077620        0.07213003
 C           -1.51123998        2.82865591       -1.01535917
 C            0.86994607        3.39647537       -0.78484612
 C           -0.32731058        3.27768942       -1.59702142
 C            2.95661722        2.09588134       -1.15376253
 C            2.01089989        3.08821467       -1.62015570
 C            3.38424998       -0.20609044       -1.86535474
 C            2.58695203       -1.27955594       -2.43911853
 C            3.12450641        1.11341473       -2.21244771
 C            1.62971222       -0.99166435       -3.39998828
 C            0.05318248       -2.52927792       -2.29051001
 C            0.34852521       -1.67087517       -3.34463562
 C           -1.69906871       -3.50856510       -0.89312329
 C           -2.95758688       -2.88822899       -0.50953810
 C           -1.27160431       -2.91529281       -2.13901619
 C           -3.92604437       -0.76808185       -1.21667958
 C           -3.35303862       -1.97960367       -1.56622719
 C           -2.31881511       -2.01188377       -2.59344106
 C           -3.58233901        1.55185657       -1.31287640
 C           -2.47258485        2.29334232       -1.86651122
 C           -3.76874751        0.35592287       -2.11710827
 C           -0.67515306       -0.74555657       -3.80248221
 C           -1.96073549       -0.84564963       -3.27707336
 C           -2.03220683        1.60516038       -3.06996344
 C           -2.70881337        0.31753810       -3.10930871
 C            0.06508063        2.72838685       -2.88617747
 C            1.51484227        2.66463737       -2.91992725
 C            2.15553232        1.40988639       -3.25655432
 C            1.38593213        0.38729459       -3.79591604
 C           -0.69182061        1.69383830       -3.43364819
 C           -0.05420611        0.56339090       -3.94848718
