   70
C70 / DATE: 7/ 1/2024 / Origin: Program Fullerene / C70 from database
 C            1.18999270        0.09088815        4.27925821
 C            2.50788384       -0.29480927        3.83785869
 C            2.47681219       -1.72441692        3.56067506
 C            0.37411605       -1.11200279        4.30043220
 C            1.08097435       -2.12346932        3.54903644
 C           -0.94224303       -0.73604371        3.85142444
 C            0.46065032        1.07881170        3.50899556
 C           -0.93113445        0.69104099        3.57578016
 C            0.96144135        1.52302123        2.28991272
 C            3.05642692        0.34371663        2.66203836
 C            2.25679370        1.17877222        1.87481037
 C            3.28114551       -1.95050637        2.37424198
 C            3.86321464       -0.66683865        2.00859326
 C            2.77739844       -2.77394192        1.37538714
 C            0.51642611       -2.61022755        2.36797792
 C            1.36005096       -3.11679664        1.37557285
 C           -1.59848509       -1.54773005        2.94160528
 C           -0.82379411       -2.31871423        2.05392961
 C           -2.82316653       -1.05978830        2.51119676
 C           -1.81127494        1.15596848        2.60351440
 C           -2.94417626        0.38447273        2.37212828
 C            0.07203806        2.06981742        1.36932684
 C           -1.31363685        1.92602772        1.54856118
 C            0.57113372        2.57392478        0.17273878
 C            2.64858092        1.42159641        0.55247173
 C            1.76805872        2.06255132       -0.32949890
 C            4.23658233       -0.44198044        0.69493654
 C            3.79117470        0.78663087        0.06473911
 C            3.18336832       -2.54557485       -0.00186782
 C            4.05090719       -1.49835324       -0.28790081
 C            0.90797865       -3.13149796       -0.00393651
 C            2.02326744       -2.77031132       -0.85522560
 C           -1.27400313       -2.53810102        0.74076304
 C           -0.35114868       -2.63625364       -0.29109697
 C           -3.45509484       -1.66817252        1.36650018
 C           -2.60511754       -2.33355057        0.40963262
 C           -3.76246894        0.65339298        1.20780965
 C           -4.18314370       -0.62862571        0.66630906
 C           -2.18331950        2.34469220        0.53628119
 C           -3.38388004        1.64977703        0.31439153
 C           -0.27317587        3.29159270       -0.66405659
 C           -1.70254600        3.24156363       -0.41695002
 C           -0.06672172        3.20275380       -2.09651157
 C            1.95463631        1.97904339       -1.71992258
 C            0.90153997        2.32444095       -2.56560701
 C            3.93763252        0.58481058       -1.35688135
 C            3.96345915       -0.85391249       -1.58441247
 C            2.93506290        1.13958332       -2.23729284
 C            1.79653601       -1.94939754       -1.95628537
 C            2.83727144       -1.16027825       -2.44626712
 C            2.51895415        0.07674970       -3.13122801
 C           -0.58341982       -1.96203939       -1.49366782
 C            0.48384218       -1.67435156       -2.35369591
 C           -2.91982581       -1.80367490       -0.90895174
 C           -4.01480119       -0.85614658       -0.75576575
 C           -1.87778358       -1.51329378       -1.79283902
 C           -3.91013387        1.56480499       -0.97463898
 C           -4.04595781        0.25194973       -1.58494306
 C           -2.37361922        3.37586084       -1.69686587
 C           -1.37053346        3.23841655       -2.73912561
 C           -3.45744298        2.47301679       -2.00664661
 C           -2.07962131       -0.56661036       -2.80368663
 C           -3.19666276        0.26594804       -2.75735693
 C           -1.76025172        2.13246494       -3.59660844
 C           -3.05549277        1.66047150       -3.14581579
 C            0.59121112        1.47004194       -3.62641049
 C            1.27693554        0.19434789       -3.72604690
 C            0.27988634       -0.82227585       -3.43527932
 C           -0.79734380        1.19681701       -3.94372367
 C           -1.02196340       -0.21009346       -3.63182113
