   70
C70 / DATE: 7/ 1/2024 / Origin: Program Fullerene / C70 from database
 C            1.43907554       -0.13337337        5.21163428
 C            0.60062392       -1.31438565        5.15326634
 C            1.23661119       -2.26509962        4.25766908
 C            2.57361765       -0.34424911        4.32576326
 C            2.47456211       -1.68134536        3.77472000
 C            2.63628536        0.78322971        3.41133530
 C            0.67113223        0.97552976        4.67544322
 C            1.50535117        1.64677060        3.70610165
 C           -0.66654347       -0.93018007        4.55205813
 C           -0.61118837        0.47670427        4.21926223
 C            0.24262944       -2.68104499        3.28578266
 C           -0.94005559       -1.85934502        3.48201574
 C            0.63895615       -2.93998672        1.97593842
 C            2.81604746       -1.87322341        2.44347453
 C            1.96169704       -2.69736157        1.60162628
 C            2.96716769        0.56756077        2.06942676
 C            3.23113181       -0.73330112        1.63548653
 C            2.58201591        1.53079710        1.12821250
 C            0.89322290        2.25440272        2.62746322
 C            1.70082797        2.53480511        1.54368515
 C           -1.05826348        0.88214673        2.96161734
 C           -0.45604534        1.99161897        2.36721584
 C           -1.58450237       -1.39679421        2.34484614
 C           -1.74782366       -0.02267871        2.14518746
 C           -0.33584383       -2.90810215        0.98249801
 C           -1.51614967       -2.20017827        1.22332564
 C            0.06110373       -3.08902192       -0.33858820
 C            2.24909667       -2.33352568        0.22013599
 C            2.99130722       -1.08597900        0.24372084
 C            1.25650273       -2.49949854       -0.73828532
 C            2.69144276        1.23772974       -0.23720046
 C            2.64591936       -0.08942582       -0.65712390
 C            2.43753612        2.24055712       -1.16475662
 C            1.18629034        3.41803886        0.61396903
 C            1.75559226        3.43421791       -0.71254033
 C           -0.99976440        2.49436771        1.18376455
 C           -0.25728082        3.44626757        0.47888825
 C           -2.20255896        0.41572474        0.89359946
 C           -1.95887262        1.73707221        0.50613596
 C           -2.31894565       -1.87876134        0.14301672
 C           -2.61993178       -0.52678671       -0.06346133
 C           -0.94036677       -3.25624854       -1.28318201
 C           -2.24932328       -2.73676584       -0.94225814
 C           -0.68455541       -2.84333314       -2.64756499
 C            1.25104619       -1.66280928       -1.85803156
 C            1.91624244       -0.42796890       -1.80133241
 C            0.33630699       -1.92222690       -2.88118670
 C            1.88398073        1.88433743       -2.45940932
 C            1.69371702        0.54398206       -2.78296342
 C            0.68473431        3.73079925       -1.64667515
 C           -0.56491211        3.73504703       -0.91129339
 C            0.82340250        2.83160841       -2.77373354
 C           -2.45354925        2.19558848       -0.71019149
 C           -1.67245719        3.14163163       -1.49110453
 C           -3.11655421       -0.09475225       -1.30479338
 C           -3.05246532        1.25473951       -1.63794924
 C           -2.91847952       -2.37930748       -2.16874939
 C           -1.99215768       -2.65521910       -3.25427710
 C           -3.37076401       -1.01643490       -2.32167360
 C           -2.16551932       -1.61726817       -4.24656411
 C           -3.10150769       -0.64342061       -3.70119229
 C            0.25908780       -1.05494037       -3.96732764
 C            0.85796473        0.25848461       -3.85789728
 C           -0.99341158       -0.89662338       -4.69408329
 C           -0.31677341        2.35251851       -3.40911832
 C           -1.57249713        2.61283990       -2.84494328
 C           -2.65127927        1.64641810       -2.98431626
 C           -2.57843481        0.68160066       -3.97881307
 C           -0.15741135        1.23668863       -4.22321938
 C           -1.32604014        0.51714144       -4.69248604
