   70
C70 / DATE: 7/ 1/2024 / Origin: Program Fullerene / C70 from database
 C            1.26914478       -0.09036506        4.91497242
 C            2.55256331       -0.45279298        4.35576841
 C            2.36070686       -1.68903281        3.60133984
 C            0.41234339       -1.24974413        4.76810535
 C            0.95601154       -2.02812456        3.67193151
 C           -0.93460025       -0.74726809        4.64293845
 C            0.54646789        1.02817915        4.32907594
 C           -0.85222906        0.69814655        4.44862458
 C            1.01836553        1.60111895        3.14782550
 C            3.18997919        0.49521632        3.46862639
 C            2.38847982        1.56969390        2.90285145
 C            2.96272682       -1.50418199        2.29866320
 C            3.70748502       -0.26600392        2.35079670
 C            2.21662327       -1.75672489        1.15150596
 C            0.22173124       -2.14031933        2.48979824
 C            0.88188652       -2.16471889        1.25127937
 C           -1.75275988       -1.24719698        3.56169444
 C           -1.16926760       -1.99000944        2.53084171
 C           -1.74313723        1.02576420        3.35500692
 C           -2.59660944       -0.13295467        3.19550438
 C            0.13704250        1.89036363        2.09080511
 C           -1.23852528        1.63370991        2.20556039
 C            0.64127211        2.37402649        0.87665496
 C            2.86935827        1.76803549        1.55367198
 C            3.63838145        0.59426673        1.19179846
 C            2.00750005        2.26549958        0.58725259
 C            2.65509774       -1.20231118       -0.04808298
 C            3.33204311        0.02579677       -0.03197379
 C            2.04198909       -1.60108383       -1.23149498
 C            0.13441366       -2.32877867        0.07926821
 C            0.73229377       -2.10032505       -1.17344914
 C           -1.90200379       -2.13391535        1.35441761
 C           -1.24802961       -2.50353512        0.17766507
 C           -3.30375190       -0.24917813        2.02021731
 C           -3.12583794       -1.46973800        1.26385664
 C           -2.03327539        1.60929259        1.05300491
 C           -3.17857973        0.81407206        1.04265604
 C           -0.24173908        2.64798011       -0.17169977
 C           -1.51625426        2.07156670       -0.15775618
 C            0.28853177        3.13076901       -1.36587070
 C            2.38451154        2.08633912       -0.74366898
 C            3.07454238        0.91249321       -1.06962459
 C            1.64494859        2.75428807       -1.70964235
 C            2.50753944       -1.01521738       -2.40482052
 C            2.95193836        0.36088531       -2.33539223
 C            1.76985911       -1.18167783       -3.63241870
 C           -0.00704379       -2.29071628       -2.35318609
 C            0.45675137       -1.77442532       -3.56392210
 C           -2.00353547       -2.68359257       -0.97813553
 C           -1.35303673       -2.62777044       -2.27255038
 C           -3.68380732       -1.19983993       -0.04111000
 C           -3.63644632        0.24956543       -0.21250854
 C           -3.28509833       -2.00114991       -1.09473712
 C           -2.18790003        1.78283602       -1.36008819
 C           -3.14787175        0.76922877       -1.40322051
 C           -0.50537617        3.07995383       -2.57483067
 C           -1.72970088        2.31239571       -2.56201598
 C            1.64726269        2.28783594       -3.08499536
 C            2.29039213        1.09883127       -3.39361721
 C            1.63939647        0.12738518       -4.25802914
 C            0.33480650        2.56331219       -3.64525357
 C           -0.43099330       -0.95720944       -4.37762456
 C           -1.73854276        1.47417491       -3.74978767
 C            0.24362625        0.30702131       -4.62248186
 C           -0.39957883        1.50190335       -4.31585201
 C           -2.28204674       -2.00732677       -3.20419017
 C           -3.36368470       -1.44004944       -2.42670099
 C           -3.28329675        0.00157636       -2.56039863
 C           -1.78688082       -0.96638532       -4.08834081
 C           -2.44657243        0.28013958       -3.71450803
