   70
C70 / DATE: 7/ 1/2024 / Origin: Program Fullerene / C70 from database
 C            1.66530891       -0.19341837        5.02463404
 C            0.81307591       -1.36343881        5.12624744
 C            1.30381932       -2.34525070        4.17968253
 C            2.62441598       -0.42794020        3.95761081
 C            2.37149032       -1.73754465        3.39987098
 C            2.57285075        0.70772466        3.06639425
 C            0.83391628        0.92212377        4.61376297
 C            1.50870838        1.58887076        3.51509884
 C           -0.52268024       -0.98565493        4.69369186
 C           -0.50734459        0.42635355        4.37203116
 C            0.15480822       -2.86379871        3.46428391
 C           -0.93528888       -1.91785716        3.66115645
 C            0.37012555       -3.34028933        2.18400479
 C            2.34035072       -1.88957364        2.01365603
 C            1.59510891       -2.94630789        1.50245980
 C            2.68969403        0.49787144        1.69978462
 C            2.63284595       -0.79957890        1.17789850
 C            2.32692566        1.54651307        0.86797292
 C            0.72594161        2.18991690        2.53373614
 C            1.30600531        2.40858067        1.28510178
 C           -1.14083134        0.85159750        3.21215254
 C           -0.65404820        1.99632919        2.58666175
 C           -1.61085684       -1.42653159        2.54265236
 C           -1.88578442       -0.05822565        2.45253876
 C           -0.69241248       -3.20047697        1.21010320
 C           -1.64869369       -2.20306491        1.38312337
 C            1.33023158       -3.00829214        0.08043778
 C           -0.06985327       -3.34378992       -0.08946922
 C            2.53463569       -0.94427558       -0.21446404
 C            1.87243651       -2.05123699       -0.76219789
 C            2.62733504        1.44837779       -0.48239794
 C            2.77386011        0.16789923       -1.03102758
 C            2.30283038        2.53505940       -1.28632287
 C            0.58626649        3.13428654        0.33348682
 C            1.13546634        3.31376782       -0.93253820
 C           -1.44006572        2.57139079        1.60129055
 C           -0.79480877        3.23589635        0.48022254
 C           -2.57850824        0.42020832        1.33874459
 C           -2.53702952        1.78807390        1.06690410
 C           -2.30111691       -1.71131741        0.25264352
 C           -2.92919051       -0.46507383        0.31875218
 C           -0.72857282       -2.82150841       -1.18890020
 C           -1.99009150       -2.26527540       -0.99396424
 C            1.34625400       -1.95864041       -2.05101473
 C            0.03334363       -2.39203752       -2.27462616
 C            2.76098787       -0.01516759       -2.41439678
 C            1.96384580       -1.09959495       -2.95328720
 C            2.32776248        2.41443255       -2.72818547
 C            2.61620683        1.12215640       -3.30293215
 C            0.25408103        3.29756672       -2.08979878
 C            1.02889865        2.84864250       -3.22397150
 C           -1.64745649        3.06023613       -0.68666792
 C           -2.79663845        2.26886507       -0.27950223
 C           -1.05094719        2.84940872       -1.92802521
 C           -3.59306857        0.02924341       -0.80343332
 C           -3.37864739        1.41172540       -1.19371871
 C           -2.73744696       -1.90969636       -2.10959934
 C           -3.61173401       -0.75899355       -2.02144013
 C           -0.62887370       -2.03755413       -3.44613123
 C           -2.07225070       -1.85601533       -3.40019481
 C            1.22823167       -0.59339101       -4.10336384
 C            1.55340750        0.81515763       -4.24382088
 C            0.49321766        1.79184318       -4.05076282
 C           -0.09275489       -0.97557994       -4.27487397
 C           -1.58831573        1.89467479       -2.80615113
 C           -2.86940065        1.39580959       -2.55188612
 C           -3.28596918        0.13151099       -3.12602100
 C           -2.37350954       -0.56551043       -4.00161625
 C           -0.80116678        1.32837041       -3.82775141
 C           -1.10933286        0.06141818       -4.32433865
