   70
C70 / DATE: 7/ 1/2024 / Origin: Program Fullerene / C70 from database
 C            1.49609214        0.09249890        4.95211756
 C            0.70220883       -1.12026307        4.98746108
 C            1.46218938       -2.16085004        4.32228953
 C            2.62550213       -0.14294633        4.06510308
 C            2.62092169       -1.53786136        3.69767833
 C            2.56270252        0.84188586        3.00636575
 C            0.67983048        1.13557617        4.35549181
 C            1.44673791        1.72418255        3.28486658
 C           -0.62461041       -0.80081490        4.48800870
 C           -0.61176351        0.57659240        4.01911520
 C           -1.30397459       -1.74643249        3.73687236
 C            0.79705457       -2.96660931        3.31420535
 C           -0.58301547       -2.89328694        3.18806964
 C            2.60034704       -1.88047163        2.28790958
 C            1.60758141       -2.92264342        2.11070076
 C            2.76527125        0.46674506        1.67615066
 C            2.70234073       -0.88603573        1.30857455
 C            2.45346447        1.41889528        0.70881164
 C            0.77092832        2.21832574        2.18384391
 C            1.52409823        2.40879039        1.04065986
 C           -1.16027321        0.88602647        2.77132929
 C           -0.57513838        1.89647325        1.99901718
 C           -2.20940484       -1.28593500        2.70279515
 C           -2.05312883       -0.00521725        2.17029972
 C           -1.17941128       -3.19443849        1.89823916
 C           -2.39128896       -2.40510526        1.80165688
 C            0.99777335       -3.02115121        0.86810206
 C           -0.36827322       -3.31262537        0.77060994
 C            2.32490657       -1.21842749       -0.00088300
 C            1.63071871       -2.41429778       -0.21016270
 C            2.60843571        1.08257042       -0.63185076
 C            2.34737250       -0.23650375       -1.00255081
 C            2.45826483        2.10335942       -1.56481680
 C            0.94615197        3.13645389        0.01445851
 C            1.69691590        3.26184854       -1.14661327
 C           -1.14641954        2.23648249        0.77152800
 C           -0.45183689        3.12071241       -0.05941533
 C           -2.52392229        0.25179177        0.88009042
 C           -2.10862413        1.39779678        0.20159584
 C           -2.90411080       -2.15261075        0.54443999
 C           -3.14465510       -0.77171624        0.16433158
 C           -0.97094746       -3.27238431       -0.49014004
 C           -2.28032699       -2.79236661       -0.60009614
 C            1.19724197       -2.74643668       -1.48064484
 C           -0.14773592       -3.27453307       -1.61454166
 C            1.81458625       -0.51808429       -2.26950034
 C            1.42069719       -1.81584854       -2.56646277
 C            2.01901848        1.78158495       -2.90722406
 C            1.46909264        0.52445020       -3.14007290
 C            1.10688474        3.86341847       -2.32078019
 C            1.37524567        2.97291403       -3.43963146
 C           -1.09631650        3.58893871       -1.20116824
 C           -0.31240638        4.13506743       -2.29601623
 C           -2.45043660        1.56219555       -1.14514459
 C           -2.15136453        2.76908884       -1.76826369
 C           -3.15029933       -0.72549022       -1.28828619
 C           -2.68089368       -2.01853379       -1.76560167
 C           -2.72911616        0.43447842       -1.92784353
 C           -0.67020557       -2.82337831       -2.89115364
 C            0.35755831       -2.01269029       -3.52477654
 C           -1.91210421       -2.07447115       -2.91635295
 C            0.38271869        0.37989789       -4.02484964
 C           -2.23874730        0.34738376       -3.23862639
 C           -0.28032648       -0.83947024       -4.07515459
 C           -1.67510934       -0.85390966       -3.66495898
 C            0.14539463        2.82187391       -4.18195747
 C           -0.87140024        3.63956630       -3.53919145
 C           -1.98928891        2.77330381       -3.20582656
 C           -0.39756920        1.49083088       -4.33410336
 C           -1.77180295        1.50184002       -3.85812686
