   70
C70 / DATE: 7/ 1/2024 / Origin: Program Fullerene / C70 from database
 C            1.46465050        0.03997428        4.68703129
 C            0.69479353       -1.18504393        4.57975598
 C            1.38847479       -2.07996031        3.66727947
 C            2.63859575       -0.10510338        3.84776237
 C            2.66165325       -1.46209860        3.33435428
 C            2.64788243        0.99159381        2.89554667
 C            0.65682391        1.11213363        4.13233452
 C            1.39650908        1.71212105        3.04003306
 C           -0.67191160       -0.81619115        4.26918846
 C           -0.66116394        0.57889259        3.85247207
 C           -1.42693932       -1.71090176        3.53032124
 C            0.64747226       -2.73090078        2.67823831
 C           -0.74134081       -2.78256858        2.82033431
 C            1.23737418       -3.02422976        1.44098546
 C            3.19522141       -1.66708722        2.07427233
 C            2.52274321       -2.57030498        1.15724737
 C            3.11749687        0.75337385        1.60866064
 C            3.61816075       -0.51343612        1.29641267
 C            2.66771199        1.57147041        0.57138975
 C            0.71270817        2.06665919        1.88417297
 C            1.43905442        2.22903288        0.70588150
 C           -1.28208845        0.93050043        2.65545914
 C           -0.66527864        1.84996243        1.80145507
 C           -2.42279064       -1.18654548        2.61785837
 C           -2.30756775        0.12555728        2.16006716
 C           -1.58120304       -3.16069616        1.69535491
 C           -2.71086317       -2.24294897        1.66708645
 C            0.45897310       -3.49073610        0.38266805
 C           -0.98537267       -3.55761964        0.50835464
 C            0.77095045       -3.06173748       -0.97397598
 C            2.83819341       -2.13496938       -0.19720911
 C            3.66272611       -0.94071470       -0.09170120
 C            1.85805361       -2.22085496       -1.18790737
 C            3.19692194        1.36752844       -0.69577832
 C            3.57086880        0.01918667       -1.08234918
 C            2.55811818        1.97942154       -1.84255557
 C            0.78069437        2.73503749       -0.41816061
 C            1.44200065        2.78423886       -1.65282164
 C           -1.32889718        2.24472376        0.64314018
 C           -0.60561901        2.90479825       -0.35192500
 C           -2.93425400        0.48399376        0.96737842
 C           -2.56756821        1.67268232        0.33808169
 C           -3.28600477       -1.89239340        0.45639722
 C           -3.59864053       -0.49483583        0.22603356
 C           -1.56488840       -3.15600451       -0.76459128
 C           -0.47948489       -2.79190414       -1.65779954
 C           -2.73402771       -2.41149907       -0.78726451
 C           -0.58046286       -1.65114150       -2.44606105
 C            1.78993247       -1.24310643       -2.18818803
 C            2.80208718       -0.28943472       -2.26949155
 C            2.52701966        0.98245970       -2.90347287
 C            0.58978185       -1.03029860       -2.88078728
 C            1.50226758        1.05012101       -3.83076563
 C            0.50133880       -0.00748725       -3.82349513
 C            0.74867890        3.18166527       -2.79367749
 C            0.79760183        2.31217563       -3.95689216
 C           -1.28763683        3.50172856       -1.40395819
 C           -0.61075394        3.66548248       -2.67216357
 C           -3.20325486        2.01149372       -0.85493666
 C           -2.63164626        3.05020510       -1.69397896
 C           -3.71802609       -0.33596230       -1.21045457
 C           -2.89500099       -1.37728038       -1.79746451
 C           -1.81513313       -1.00725307       -2.59969155
 C           -3.62889706        0.93892658       -1.73776822
 C           -0.79403280        0.60309760       -4.06982986
 C           -0.56851649        2.01551552       -4.33736880
 C           -1.41182070        2.99986708       -3.69146900
 C           -2.63017340        2.54570989       -3.05827353
 C           -1.88372938        0.20222853       -3.29760860
 C           -2.88854588        1.11969103       -2.97117305
