   70
C70 / DATE: 7/ 1/2024 / Origin: Program Fullerene / C70 from database
 C            1.48294803       -0.12131978        4.94990643
 C            0.69695647       -1.33155145        4.81050398
 C            1.41409422       -2.23893769        3.92641993
 C            2.64754936       -0.25784695        4.09709125
 C            2.51710157       -1.49462224        3.34510089
 C            2.77787529        0.97390778        3.34947730
 C            0.69210612        0.97922513        4.42458117
 C            1.49695838        1.66228339        3.43087094
 C           -0.65454246       -0.93854355        4.45177615
 C           -0.59384215        0.44903992        4.01858958
 C           -1.41419687       -1.83202119        3.71183391
 C            0.67267370       -3.07971236        3.11311244
 C           -0.77505525       -3.05043572        3.23895264
 C            0.98136704       -3.13591085        1.69197428
 C            2.68130831       -1.44881571        1.95800971
 C            1.82023213       -2.17724473        1.12824121
 C            3.38266170        0.90016921        2.10801924
 C            3.40859013       -0.39021618        1.42567662
 C            2.99219277        1.86695056        1.10699588
 C            0.89430426        2.08647228        2.24671694
 C            1.71463313        2.42164565        1.16950744
 C           -1.09179580        0.79084638        2.76447826
 C           -0.44798619        1.77482578        2.00274506
 C           -2.23311942       -1.32651623        2.62133785
 C           -2.05351264       -0.02389064        2.16441286
 C           -1.33396538       -3.36856812        1.94122815
 C           -0.23773880       -3.50279610        0.99814676
 C           -2.36200733       -2.38720920        1.64099036
 C           -0.45057884       -3.02148910       -0.28340282
 C            1.63609254       -1.80728627       -0.21531504
 C            0.58439100       -2.36484817       -0.95379286
 C            3.34687098       -0.12324717        0.00042486
 C            3.44631422        1.31821176       -0.15044550
 C            2.44005326       -0.82180718       -0.79345515
 C            2.95473596        1.88534437       -1.30648385
 C            1.13239168        2.88182165       -0.01082527
 C            1.90063125        2.87348984       -1.17678239
 C           -1.02806770        2.18444525        0.80227623
 C           -0.25864465        2.91237421       -0.11153449
 C           -2.51265848        0.30433003        0.89188645
 C           -2.20324451        1.55738618        0.38094050
 C           -2.52493947       -2.02647278        0.31108231
 C           -1.75801469       -2.70198493       -0.62957732
 C           -2.89864445       -0.71659186        0.01478917
 C           -2.02021340       -2.45837617       -1.96181906
 C            0.34411823       -1.94122776       -2.26718278
 C           -0.88231525       -2.29467859       -2.83947854
 C            2.09485606       -0.28803194       -2.03734250
 C            2.52411052        1.00034791       -2.36494114
 C            1.09608944       -0.88761634       -2.80585143
 C            1.24752256        2.95195464       -2.47356962
 C            1.71977247        1.81541995       -3.25545789
 C           -0.84397691        3.38018370       -1.28592770
 C           -0.08982428        3.31608583       -2.52699886
 C           -2.82188071        1.95895013       -0.79304112
 C           -2.21233947        3.00857383       -1.58177163
 C           -3.18305392       -0.40630162       -1.31990163
 C           -2.93722420       -1.38205430       -2.28662224
 C           -3.30417939        0.93212748       -1.69867603
 C           -1.37758549       -1.61282891       -4.01806360
 C           -2.64809180       -0.99685568       -3.65658924
 C            0.70582412       -0.26441723       -3.99770403
 C            0.85684174        1.17299910       -4.12513011
 C           -0.55127385       -0.60436627       -4.63011438
 C           -0.95177337        2.73998752       -3.54721637
 C           -2.28529827        2.62258634       -2.98112604
 C           -2.98388567        1.35074735       -3.05924727
 C           -2.57592695        0.40923064       -3.99546889
 C           -0.46632578        1.72704073       -4.36878563
 C           -1.33644483        0.61763644       -4.72845428
