   70
C70 / DATE: 7/ 1/2024 / Origin: Program Fullerene / C70 from database
 C            1.30368308       -0.00283280        4.74734012
 C            2.53792746       -0.09903150        3.99712106
 C            2.56375894       -1.40474888        3.36528309
 C            0.47082601       -1.14150093        4.38407979
 C            1.24209792       -1.98789973        3.49897580
 C           -0.80135392       -0.63203722        3.91135944
 C            0.49951842        1.18935052        4.59824449
 C           -0.85367287        0.76415032        4.27776753
 C            0.88232446        2.19075503        3.61443540
 C            2.82419208        0.88708425        2.96869358
 C            2.00356050        2.00462588        2.80341083
 C            3.10166642       -1.24477552        2.02256271
 C            3.29716535        0.17415002        1.78871637
 C            2.55352238       -2.00403881        1.00027145
 C            0.64703260       -2.48122123        2.34711487
 C            1.48852417       -2.85162606        1.30902884
 C           -1.24911062       -1.01274157        2.64760418
 C           -0.66606407       -2.11851173        2.02743188
 C           -2.04257656       -0.13966690        1.89104425
 C           -1.38118396        1.69473409        3.30982246
 C           -0.35021416        2.68023566        3.01997248
 C           -2.13547098        1.21589837        2.24938557
 C           -0.32277598        3.25365744        1.74955698
 C            2.07222790        2.69353568        1.59810274
 C            0.90420003        3.41453656        1.11134970
 C            3.02663279        0.70513073        0.52773149
 C            2.70340958        2.05166238        0.45483821
 C            2.67137032       -1.53099684       -0.30377130
 C            2.67505248       -0.14998403       -0.52759463
 C            2.34834531       -2.39801522       -1.33608316
 C            0.94385879       -3.62637099        0.30014564
 C            1.55894340       -3.57044599       -1.01056923
 C           -1.21085284       -2.59429644        0.83423552
 C           -0.49309644       -3.55340697        0.11257111
 C           -2.52935468       -0.56926704        0.64704706
 C           -2.21346350       -1.86076432        0.19565635
 C           -3.17343496        0.34464900       -0.20361340
 C           -2.45175308        2.14521961        1.27462838
 C           -1.48427363        3.19069809        0.98242701
 C           -3.02329176        1.70033176        0.02939870
 C           -1.42227036        3.34423261       -0.46382723
 C           -2.49151732        2.53600762       -1.03433568
 C            0.97552397        3.42596490       -0.34235683
 C            2.08581757        2.57319473       -0.74081193
 C           -0.18965525        3.40939082       -1.10570073
 C            2.15004028        0.37446569       -1.72559650
 C            1.92651895        1.75678801       -1.84893873
 C            1.84889816       -1.86398037       -2.58414394
 C            1.80330526       -0.49062980       -2.77953031
 C            0.50670634       -3.70179914       -2.00109696
 C           -0.76232046       -3.76001860       -1.30157490
 C            0.70465678       -2.66726484       -2.99744994
 C           -2.70868922       -2.32070772       -1.02353952
 C           -1.85582032       -3.13256209       -1.87120488
 C           -3.50399903       -0.02249291       -1.50028625
 C           -3.41458339       -1.40725238       -1.89320416
 C           -2.34096809        1.98760501       -2.30503608
 C           -3.01293404        0.79661131       -2.59884375
 C           -0.09783442        2.99075006       -2.43078472
 C            1.07431111        2.23270702       -2.83705853
 C           -1.25074974        2.38230293       -3.07769877
 C            0.99625154       -0.03665757       -3.81837392
 C            0.69050843        1.36849134       -3.92534431
 C           -0.74498549        1.50324046       -4.11780599
 C           -0.40588972       -2.02571989       -3.54128943
 C           -1.68545095       -2.40650266       -3.12306539
 C           -2.78421897       -1.46104748       -3.20468549
 C           -2.51349369       -0.10248323       -3.63080879
 C           -0.20984155       -0.78212477       -4.14268217
 C           -1.30521277        0.17326630       -4.24864754
