   70
C70 / DATE: 7/ 1/2024 / Origin: Program Fullerene / C70 from database
 C            1.08150837       -0.19842461        4.71279664
 C            2.32704511       -0.46494694        4.02693663
 C            2.20745535       -1.75778280        3.37225191
 C            0.22697902       -1.36256618        4.53595951
 C            0.83111260       -2.18839538        3.51051468
 C           -1.12152237       -0.88572934        4.33315268
 C            0.30909736        0.96651135        4.32180755
 C           -1.08097429        0.56769608        4.36162829
 C            0.74421458        1.76186641        3.26072058
 C            2.77956983        0.48013226        3.02924339
 C            2.07083909        1.65596615        2.80756269
 C            2.75469001       -1.63191811        2.02990429
 C            3.23839575       -0.27286417        1.87400553
 C            2.07013119       -2.21029993        0.96984660
 C            0.12667881       -2.49112985        2.34866238
 C            0.85858001       -2.85565191        1.22093730
 C           -1.82353351       -1.27369693        3.12458002
 C           -1.20325086       -2.07639991        2.17948344
 C           -1.95703944        1.04430290        3.31421649
 C           -2.54685327       -0.11381883        2.65571692
 C           -0.20151571        2.49231054        2.52094431
 C           -1.55104744        2.10936929        2.52072118
 C            0.23308530        3.46006321        1.61787308
 C            2.48180991        2.41830621        1.72261541
 C            1.62745774        3.47916423        1.23710626
 C            3.16809406        0.33312053        0.62016356
 C            3.04006448        1.72425722        0.57086765
 C            2.32635788       -1.74121004       -0.31600078
 C            2.77811203       -0.42634589       -0.49095196
 C            1.79498314       -2.43774313       -1.40202536
 C            0.16571915       -3.40095913        0.15195989
 C            0.75028138       -3.33085816       -1.17377105
 C           -1.76428367       -2.13370954        0.90525484
 C           -1.23874318       -3.06184449        0.02121773
 C           -2.86281615       -0.00945262        1.30070304
 C           -2.47526542       -1.02777411        0.41380662
 C           -2.33476448        2.37479603        1.40331017
 C           -3.06813285        1.27005154        0.80513560
 C           -0.54306398        3.72049543        0.41790769
 C           -1.82828393        3.21412172        0.33142008
 C            1.69536081        3.47896101       -0.21577583
 C            2.50435716        2.35151708       -0.62546252
 C            0.34386123        3.57572474       -0.72566448
 C            2.51291406        0.22948268       -1.69302361
 C            2.05234084        1.53753039       -1.65138209
 C            1.99032389       -1.93342042       -2.68341628
 C            2.26526902       -0.51774452       -2.83233970
 C            1.08596003       -2.32252025       -3.75503495
 C           -0.35671654       -3.40377813       -2.11194099
 C           -1.54121502       -2.96436602       -1.38899217
 C           -0.16657623       -2.97507646       -3.41656037
 C           -2.63625763       -0.85003745       -0.97660055
 C           -2.26667597       -1.87879529       -1.86313605
 C           -3.10532442        1.48279916       -0.62056027
 C           -2.27977755        2.64044197       -0.92448993
 C           -3.03899031        0.39927626       -1.48095715
 C           -0.04329672        2.75585046       -1.78390235
 C            0.88735557        1.87138725       -2.35094104
 C           -1.40692055        2.55829156       -2.00691666
 C            1.32879099        0.00894450       -3.80837861
 C            0.77587346       -1.12917298       -4.52541622
 C            0.51740244        1.08914302       -3.44894426
 C           -1.23752672       -2.23945950       -4.06498752
 C           -2.29520905       -1.67094692       -3.24290564
 C           -0.63836421       -1.15508580       -4.82911559
 C           -2.77487105        0.71342686       -2.80681066
 C           -1.80188226        1.76102185       -3.07339851
 C           -0.78908356        1.17764882       -3.92773740
 C           -2.55456532       -0.34761041       -3.75592572
 C           -1.41772797        0.03755748       -4.57746836
