   70
C70 / DATE: 7/ 1/2024 / Origin: Program Fullerene / C70 from database
 C            1.68780181       -0.03165154        4.46489602
 C            0.82200030       -1.19286539        4.47913724
 C            1.23653808       -2.08024719        3.40505175
 C            2.57228063       -0.15494028        3.31937642
 C            2.23627198       -1.37610350        2.61982433
 C            2.50361272        1.08797479        2.58181216
 C            0.84636580        1.12940006        4.23835971
 C            1.44658123        1.88847394        3.16896722
 C           -0.55112754       -0.71996840        4.47716451
 C           -0.51215843        0.66896418        4.04842013
 C           -1.50327147       -1.55127474        3.91666687
 C            0.24612719       -2.79458398        2.74032867
 C           -1.04041917       -2.77260516        3.28827320
 C            0.40526272       -3.05874376        1.37465894
 C            2.08905803       -1.32893283        1.23960244
 C            1.29615725       -2.28847509        0.61266891
 C            2.56396004        1.05300770        1.19082293
 C            2.47161451       -0.18106033        0.53382598
 C            2.15213595        2.19891597        0.50646679
 C            0.61904579        2.54858904        2.27937140
 C            1.23026075        3.04257577        1.14179156
 C           -1.18512647        1.05356791        2.88572078
 C           -0.71630128        2.14203328        2.14968444
 C           -2.44911149       -0.98146547        2.97564853
 C           -2.08878271        0.17336116        2.28810159
 C           -2.16240791       -3.25535546        2.51115774
 C           -3.01005537       -2.09833127        2.24146678
 C           -0.53888391       -3.84622818        0.72685624
 C           -1.89152995       -3.89953686        1.24825735
 C           -0.67007393       -3.73989598       -0.70604083
 C            1.28149432       -2.34735727       -0.78582344
 C            0.35368383       -3.17028924       -1.44730940
 C            2.39841450       -0.19539909       -0.85853648
 C            1.97888915       -1.36426249       -1.50684689
 C            2.26736047        2.21826103       -0.88375725
 C            2.48237548        1.01628896       -1.56017860
 C            1.83929167        3.34339416       -1.59332151
 C            0.47308833        3.91550268        0.38242452
 C            0.93813424        4.26584349       -0.93707164
 C           -1.39160984        2.49143262        0.97794803
 C           -0.94511194        3.62391475        0.30133341
 C           -2.36610520        0.29312778        0.91830517
 C           -2.04236819        1.47912676        0.26040339
 C           -3.14773396       -1.98938271        0.80386981
 C           -2.74622917       -3.26495644        0.26137208
 C           -2.01277556       -3.25205428       -0.97845950
 C           -2.70650128       -0.83520775        0.16098314
 C           -2.10977631       -2.13894300       -1.80136325
 C           -2.35361573       -0.89344597       -1.19726503
 C           -0.00074508       -2.83566230       -2.74652652
 C           -1.28865852       -2.18212809       -2.91758894
 C            2.01601223       -1.43238204       -2.89755676
 C            0.95705667       -2.14459125       -3.57135952
 C            2.46224507        1.02091203       -2.95150268
 C            2.24227122       -0.22325864       -3.66197876
 C            1.37026501        3.19639110       -2.96185133
 C            1.65850977        2.02042831       -3.62955000
 C           -0.23504033        4.42386765       -1.77734838
 C           -1.35656963        3.83049379       -1.07036566
 C           -0.01068858        3.64566274       -2.97829506
 C           -2.03555491        1.49138856       -1.14029540
 C           -1.95848566        0.28702648       -1.83748005
 C           -1.80541599        2.67895591       -1.82269702
 C           -1.05272772        2.63589590       -3.06506514
 C           -1.05697694       -0.97883379       -3.67922742
 C            0.21471097       -1.17038622       -4.35041124
 C            1.07733520       -0.02547144       -4.51856252
 C            0.54800200        1.28358302       -4.19926447
 C           -1.33416043        0.25031615       -3.09308216
 C           -0.70811433        1.39759974       -3.59503735
