   70
C70 / DATE: 7/ 1/2024 / Origin: Program Fullerene / C70 from database
 C            1.27855809       -0.03518339        4.36864550
 C            2.57193909       -0.34395610        3.80589094
 C            2.55266782       -1.73870410        3.40058076
 C            0.44404706       -1.22473434        4.25095442
 C            1.17279493       -2.19055788        3.46106293
 C           -0.85794263       -0.78912425        3.78883676
 C            0.52146218        1.06275430        3.80384371
 C           -0.86556774        0.65783779        3.89703934
 C            0.96113162        1.68406370        2.63155076
 C            3.03566299        0.42738347        2.67171361
 C            2.27341085        1.48614161        2.17609902
 C            3.26338764       -1.84361669        2.13704420
 C            3.64091801       -0.49955227        1.72849658
 C            2.77560095       -2.71713944        1.18098821
 C            0.59012318       -2.71014597        2.30992711
 C            1.42941905       -3.24851530        1.33538418
 C           -1.42164210       -1.37617046        2.65567140
 C           -0.73927592       -2.40231180        1.98815054
 C           -2.48106890       -0.71098523        2.02336286
 C           -1.79462208        1.35190524        3.15059938
 C           -2.79003192        0.58778339        2.42867573
 C            0.01616022        2.31792245        1.81225090
 C           -1.31344777        2.35393993        2.21562522
 C            0.34006751        2.66772920        0.50111234
 C            2.65311803        2.01481624        0.94817097
 C            1.67524783        2.70945010        0.13212971
 C            3.65019833       -0.15426916        0.37757549
 C            3.45870052        1.19067011        0.06118548
 C            2.95495226       -2.39403293       -0.22027649
 C            3.43062299       -1.13862852       -0.59772904
 C            0.91433670       -3.53885098        0.00933608
 C            1.84050916       -2.97239563       -0.95553146
 C           -1.30546637       -2.96248792        0.84783226
 C           -0.44449597       -3.43932875       -0.22129116
 C           -3.03072372       -1.21379836        0.83665189
 C           -2.44839788       -2.32103570        0.22952772
 C           -3.86048572       -0.40733427        0.05339804
 C           -3.36712763        1.50830277        1.47673146
 C           -2.35194115        2.52272696        1.21727966
 C           -4.07098497        0.98935129        0.40697981
 C           -0.65635916        2.73544862       -0.48412224
 C           -2.00584706        2.80658816       -0.10065379
 C           -0.29405285        2.71559474       -1.84396059
 C            2.03287413        2.50788420       -1.25809157
 C            3.16265382        1.58664309       -1.30033085
 C            1.02059344        2.41033978       -2.20585776
 C            3.27161213       -0.77003020       -1.93357337
 C            3.23149970        0.63432633       -2.30204715
 C            1.36656238       -2.29818881       -2.07723907
 C            2.26401568       -1.45904721       -2.72646603
 C           -0.90385046       -2.83744742       -1.45981322
 C           -2.22470297       -2.29977822       -1.21052453
 C           -0.01527402       -2.11585438       -2.24825954
 C           -3.73108788       -0.47825663       -1.39415330
 C           -2.66996731       -1.20288345       -1.93662811
 C           -4.09016223        1.75655289       -0.82414806
 C           -3.01348977        2.70262011       -1.05633135
 C           -4.08727777        0.81791300       -1.93112112
 C           -1.27403862        2.59512605       -2.82652855
 C           -2.67044692        2.61082400       -2.45483456
 C           -3.26407068        1.38331536       -2.97270510
 C           -0.51206710       -1.09100534       -3.06478108
 C           -1.82008680       -0.61455007       -2.88807464
 C           -1.13096342        1.54332119       -3.81371492
 C           -2.17588609        0.58951244       -3.50422022
 C            1.25282829        1.70448189       -3.38776884
 C            2.35646155        0.76489048       -3.45092656
 C            1.78487512       -0.54407857       -3.73410324
 C            0.13741357        1.05493927       -4.05060767
 C            0.35642677       -0.36912035       -3.88388982
