   70
C70 / DATE: 7/ 1/2024 / Origin: Program Fullerene / C70 from database
 C            1.29237298        0.10886069        4.23700978
 C            2.55271071       -0.19885853        3.60046147
 C            2.56103261       -1.62295474        3.31807471
 C            0.46681490       -1.09020107        4.20683004
 C            1.20727080       -2.11754279        3.50627416
 C           -0.84204528       -0.71518252        3.70607606
 C            0.49843726        1.18941517        3.69610214
 C           -0.87778658        0.73119307        3.62010905
 C            0.99136779        1.96414475        2.64917724
 C            2.89675697        0.49260508        2.37126996
 C            2.04432432        1.47513051        1.86172860
 C            3.19431133       -1.81262490        2.02610026
 C            3.45407141       -0.49552602        1.46317652
 C            2.70213648       -2.80564687        1.19368228
 C            0.59321393       -2.80027648        2.46085327
 C            1.39894794       -3.38521457        1.48431961
 C           -1.41274127       -1.45017690        2.67778702
 C           -0.76629049       -2.59895417        2.19919479
 C           -2.42962428       -0.85719350        1.92902542
 C           -1.71103047        1.33503604        2.68345293
 C           -2.56183725        0.53740957        1.90919486
 C            0.10199249        2.87158685        2.09253425
 C           -1.31977314        2.58243131        2.19819759
 C            0.34077950        3.38481635        0.76037237
 C            2.07846348        1.74553467        0.48685753
 C            1.26823662        2.74962146       -0.05635098
 C            3.30524913       -0.29555696        0.09562057
 C            2.87595725        0.95695527       -0.34690940
 C            2.78271454       -2.61869990       -0.24245003
 C            3.21030469       -1.40129766       -0.75931449
 C            0.81509458       -3.81588505        0.22386226
 C            1.62033269       -3.24973849       -0.84568076
 C           -1.37118588       -3.35873685        1.20025136
 C           -0.56265476       -3.83114751        0.09089819
 C           -3.16062613       -1.63264815        1.03491565
 C           -2.64005930       -2.92720510        0.64713453
 C           -3.68640749       -1.01861586       -0.16787932
 C           -3.36310602        1.13794630        0.93666677
 C           -3.83088014        0.35719451       -0.19777380
 C           -1.97719078        3.15553650        1.03747384
 C           -0.94770856        3.76952074        0.21152465
 C           -3.02112308        2.46260444        0.44202406
 C           -1.09836266        3.80630901       -1.16595492
 C            1.18926227        2.92540369       -1.44246223
 C            0.05384606        3.51551437       -2.00172312
 C            2.97281190        1.26058902       -1.69752581
 C            2.05793457        2.22513454       -2.27645266
 C            2.97906268       -1.18239655       -2.11277244
 C            3.10082412        0.16330106       -2.63179596
 C            1.00684737       -2.61523319       -1.92543617
 C            1.79353512       -1.78325309       -2.71086564
 C           -1.14791860       -3.28852977       -1.12155991
 C           -2.51072654       -2.92719849       -0.80437497
 C           -3.02205492       -1.66419601       -1.28540961
 C           -0.38059927       -2.44773127       -1.92424619
 C           -2.24708639       -0.88644231       -2.13964060
 C           -0.95381198       -1.30010495       -2.50105929
 C           -3.43639031        1.07212362       -1.39910829
 C           -3.13934318        2.44073880       -1.00792687
 C           -2.26219727        3.18576794       -1.78545102
 C           -2.63363218        0.43643334       -2.34764515
 C           -0.44985695        3.00435647       -3.26186004
 C           -1.83901305        2.63778532       -3.06235665
 C           -1.95401944        1.20553596       -3.28071268
 C            1.55808866        1.67182914       -3.53205570
 C            2.08538677        0.33041509       -3.65408478
 C            1.15923877       -0.78198974       -3.54281909
 C           -0.19684648       -0.51314359       -3.37912709
 C            0.22645748        1.87113069       -3.85700918
 C           -0.68226007        0.73019219       -3.79043894
