   70
C70 / DATE: 7/ 1/2024 / Origin: Program Fullerene / C70 from database
 C            1.39031302       -0.00613839        5.09198324
 C            0.63228488       -1.21140951        4.81147964
 C            1.53786236       -2.16170843        4.21096103
 C            2.64579982       -0.10127546        4.36477582
 C            2.76866618       -1.45419651        3.87723622
 C            2.67822681        0.98118165        3.40381287
 C            0.64972898        1.11800472        4.54554577
 C            1.53681013        1.84489640        3.66505724
 C           -0.55231883       -0.82838643        4.06919021
 C           -0.58582868        0.62050268        3.98043774
 C           -0.93784897       -1.55473191        2.94849744
 C            1.11184541       -2.85462923        3.01100555
 C           -0.15531707       -2.62210178        2.47524342
 C            3.00797969       -1.66436372        2.46085504
 C            2.24438430       -2.84558405        2.10952025
 C            3.02918594        0.73624859        2.07437987
 C            3.01257751       -0.57833698        1.57786294
 C            2.85110126        1.79472893        1.19071055
 C            0.98328872        2.51248806        2.58019339
 C            1.84229907        2.78632939        1.52210283
 C           -1.03608115        1.19787956        2.79591126
 C           -0.37826354        2.32945023        2.30330107
 C           -1.84819172       -0.95767685        2.08376285
 C           -1.81647890        0.43100371        1.92317892
 C           -2.42454189       -1.74945465        1.10792962
 C           -0.42066481       -3.13323847        1.20029659
 C           -1.66318566       -2.88600479        0.62666377
 C            2.00145215       -3.08977121        0.77189321
 C            0.65207127       -3.45013811        0.36626128
 C            2.75563760       -0.82116499        0.21890465
 C            2.46989463       -2.11806699       -0.19739251
 C            2.74839280        1.53795357       -0.23055442
 C            2.55542216        0.23734196       -0.67051571
 C            1.30439731        3.31118805        0.28354768
 C            1.95071962        2.60531940       -0.81193545
 C           -0.93446307        2.98547673        1.21064733
 C           -0.05473909        3.56369252        0.20675352
 C           -2.32656282        1.02272652        0.76046101
 C           -2.04067795        2.35580554        0.50826808
 C           -3.05928943       -1.12467804       -0.03387466
 C           -2.86230582        0.23423145       -0.26075015
 C           -1.80956728       -2.91805846       -0.82046558
 C           -2.93671408       -2.05586294       -1.13888164
 C            0.56238000       -3.17039719       -1.05864104
 C            1.68527921       -2.31780883       -1.39802723
 C           -0.67331528       -2.88556265       -1.62960712
 C            1.89955386        0.02746694       -1.89034232
 C            1.44721436       -1.24828198       -2.24110536
 C            1.22747760        2.34240447       -1.97015081
 C            1.45932921        1.13119711       -2.62974060
 C           -0.71126255        3.43596095       -1.07834427
 C           -2.01137590        2.82492955       -0.86124472
 C            0.02360011        3.02683761       -2.18516023
 C           -2.98394727        0.73592921       -1.56660650
 C           -2.52671023        2.02797535       -1.87722679
 C           -3.04527297       -1.56074291       -2.42376520
 C           -3.33788242       -0.15061792       -2.59028214
 C           -0.71094635       -2.14387422       -2.81520872
 C            0.40738231       -1.36394688       -3.15672777
 C           -1.96551001       -1.84188350       -3.34596683
 C            0.86520710        0.91664555       -3.87076996
 C            0.32869482       -0.40189198       -4.15695663
 C           -0.70137876        2.75113827       -3.33728192
 C           -2.07911984        2.31467655       -3.16874499
 C           -0.10332509        1.88795246       -4.33115846
 C           -3.00482808        0.15491363       -3.96987927
 C           -2.09181150       -0.88579927       -4.42831136
 C           -0.89610654       -0.23992422       -4.91499185
 C           -2.40383404        1.43241330       -4.26982751
 C           -1.17679264        1.18081887       -5.00819215
