   70
C70 / DATE: 7/ 1/2024 / Origin: Program Fullerene / C70 from database
 C            1.24795689       -0.12771227        4.58766162
 C            2.55485312       -0.31598357        3.98777854
 C            2.52268897       -1.55775643        3.23502287
 C            0.42546216       -1.27382661        4.23148766
 C            1.17561927       -2.09565078        3.31150151
 C           -0.86498911       -0.78405525        3.80578021
 C            0.49566151        1.07679663        4.27629678
 C           -0.83164507        0.66942324        3.84957243
 C            1.12053895        2.12954132        3.62149851
 C            3.07879798        0.71867357        3.11688339
 C            2.48391281        1.97403409        3.12242578
 C            3.08568610       -1.30538135        1.91783027
 C            3.43121568        0.10169140        1.84259581
 C            2.48023030       -1.89914746        0.81836774
 C            0.57438720       -2.50278727        2.12744970
 C            1.40274707       -2.75204666        1.04009057
 C           -1.50705323       -1.38921926        2.73004120
 C           -0.78748159       -2.25542412        1.89306715
 C           -2.60051338       -0.71084718        2.21053395
 C           -1.49699806        1.37107216        2.84525965
 C           -2.59509271        0.74368655        2.27234558
 C            0.37059248        2.87766708        2.62768732
 C           -0.80713971        2.34138014        2.10894945
 C            2.60849425        2.79771490        1.93802093
 C            1.33417331        3.46458638        1.72382988
 C            3.20784204        0.79043870        0.65010341
 C            2.98497375        2.16593010        0.68575959
 C            2.60608428       -1.29424569       -0.43124075
 C            2.86682107        0.08050386       -0.50571057
 C            2.12281574       -1.97549350       -1.55291687
 C            0.87018716       -3.43522649       -0.03636055
 C            1.38000552       -3.13993151       -1.36148927
 C           -1.33611665       -2.66478769        0.66795774
 C           -0.57427773       -3.50841468       -0.13756425
 C           -3.14271850       -1.09607192        0.92453040
 C           -2.42513318       -1.97080913        0.11827299
 C           -3.13256280        1.23733723        1.02339225
 C           -3.72677319        0.09715887        0.34115888
 C           -1.16773683        2.60571770        0.77590937
 C           -2.41016624        2.17669888        0.29414188
 C            1.05678777        3.42390587        0.30632217
 C            2.17336745        2.77377904       -0.35151372
 C           -0.21943463        3.10298563       -0.13105415
 C            2.49505466        0.79078700       -1.64762341
 C            1.90575068        2.04613560       -1.50188199
 C            2.08061221       -1.32899976       -2.78781939
 C            2.31400917        0.10171320       -2.84001140
 C            1.02437287       -1.64713056       -3.74352464
 C            0.32897722       -3.48272602       -2.30069819
 C           -0.90048893       -3.64783659       -1.54010554
 C            0.06039512       -2.58291859       -3.40370976
 C           -2.66350047       -1.97336189       -1.26543634
 C           -1.89409640       -2.76708455       -2.10649097
 C           -1.33558916       -2.17247488       -3.31178941
 C           -3.89803302        0.15451889       -1.03022431
 C           -3.37340893       -0.92585395       -1.84940938
 C           -2.72243921        2.35753656       -1.05347112
 C           -3.60326230        1.40335655       -1.70640546
 C           -0.37152804        2.82241205       -1.48449591
 C            0.72473154        2.31971658       -2.19299650
 C           -1.65751813        2.67770428       -1.98513032
 C            1.42263395        0.66297942       -3.84063178
 C            0.59828401       -0.41211084       -4.36695071
 C            0.54204801        1.74692676       -3.44682244
 C           -1.71939756       -0.87610760       -3.66297045
 C           -2.87863775       -0.35229239       -3.09223401
 C           -3.04281568        1.08783207       -3.00899866
 C           -1.88388490        1.93221047       -3.21372233
 C           -0.79167851       -0.00739129       -4.24557346
 C           -0.79666066        1.40655497       -3.89254915
