   70
C70 / DATE: 7/ 1/2024 / Origin: Program Fullerene / C70 from database
 C            1.45971984        0.25113399        5.11182487
 C            0.72317305       -0.98270498        4.90931913
 C            1.64279682       -1.93657725        4.33871932
 C            2.66482441        0.17379022        4.30124373
 C            2.84148676       -1.20862853        3.93356361
 C            2.54659673        1.16198010        3.24550020
 C            0.65391974        1.33393009        4.58190911
 C            1.47938915        2.06468498        3.64298428
 C           -0.48401495       -0.66475609        4.17171392
 C           -0.59770655        0.77956959        4.09060069
 C           -0.83396567       -1.40888874        3.05240230
 C            1.21399076       -2.70800905        3.18782638
 C           -0.03801542       -2.48190694        2.61427800
 C            3.07204952       -1.53075754        2.54069266
 C            2.36092797       -2.77109340        2.30990747
 C            2.64729550        0.77740228        1.90105138
 C            3.00528084       -0.53527295        1.55937992
 C            2.14587451        1.63928968        0.91720797
 C            0.82648196        2.76122948        2.64702054
 C            1.38976150        2.73707499        1.31333820
 C           -1.15611293        1.34472653        2.94245142
 C           -0.59966926        2.52956057        2.47136953
 C           -1.77332217       -0.86436991        2.18538117
 C           -1.85178656        0.52624045        2.04180077
 C           -2.31312292       -1.69045076        1.21690602
 C           -0.28489002       -3.03830567        1.35273767
 C           -1.50418110       -2.78964199        0.73053721
 C            2.14989062       -3.14835527        0.99974653
 C            0.79360564       -3.45878623        0.57252795
 C            2.89840979       -0.94694863        0.22975273
 C            2.70345451       -2.30403282       -0.03630780
 C            2.09324604        1.22979416       -0.41994006
 C            2.61869908       -0.01433120       -0.77038706
 C            1.33998563        1.97046315       -1.35120006
 C            0.33692563        3.20431910        0.44420832
 C           -0.91716315        2.96975247        1.13188795
 C            0.37924039        2.87825119       -0.89694663
 C           -2.37551382        1.07893068        0.85967745
 C           -1.91703097        2.32924613        0.41728803
 C           -3.00955818       -1.11168817        0.09007024
 C           -3.12227907        0.26997225       -0.01252013
 C           -1.58166578       -2.77963108       -0.72397613
 C           -2.64930816       -1.87553524       -1.09522490
 C            0.75571694       -3.26358452       -0.87256144
 C            2.03979110       -2.69768148       -1.25988072
 C           -0.41370051       -2.79522305       -1.47201755
 C            2.51194499       -0.46120163       -2.08460878
 C            2.08081238       -1.82854828       -2.32838460
 C            1.31540614        1.59519688       -2.70310589
 C            1.86073979        0.37051539       -3.08038005
 C            0.38675063        2.19679198       -3.56128338
 C           -0.81112421        2.97787263       -1.60181916
 C           -1.99819610        2.62884622       -0.93944117
 C           -0.72639240        2.92792531       -2.98387411
 C           -3.53042782        0.78091229       -1.24441774
 C           -3.06216256        2.08837744       -1.64410004
 C           -2.60100732       -1.20954047       -2.31173168
 C           -3.39802365       -0.07229654       -2.41416623
 C           -0.33674672       -2.03620779       -2.64474843
 C            0.91692664       -1.74214192       -3.17945065
 C            1.08884418       -0.52462728       -3.93697053
 C           -1.45758877       -1.33781463       -3.11812292
 C           -0.14043422        1.41921692       -4.67032702
 C           -0.00648180       -0.01910220       -4.60926418
 C           -1.31801100       -0.55159845       -4.26953050
 C           -1.91332735        2.66139731       -3.77179570
 C           -3.07763196        2.13998286       -3.09443517
 C           -3.30154843        0.78453341       -3.57658806
 C           -1.55379420        1.71841984       -4.81447721
 C           -2.28805351        0.48891011       -4.56284098
