   70
C70 / DATE: 7/ 1/2024 / Origin: Program Fullerene / C70 from database
 C            1.10454420       -0.00748624        4.64180838
 C            2.32833435       -0.33855999        3.94950711
 C            2.21626944       -1.72628188        3.53231287
 C            0.27905092       -1.20570772        4.64294558
 C            0.82159611       -2.08482123        3.62827483
 C           -1.09107625       -0.77849767        4.51821383
 C            0.28215349        1.06247483        4.11770558
 C           -1.08941028        0.67095931        4.36173947
 C            0.59099102        1.63463999        2.88696513
 C            2.69013021        0.42369648        2.76976073
 C            1.81210738        1.36238569        2.25091046
 C            2.83861820       -1.82896282        2.23952460
 C            3.30328251       -0.50681763        1.85000858
 C            2.21613238       -2.58264071        1.26153773
 C            0.10799707       -2.31597094        2.44525316
 C            0.80879259       -2.66592944        1.27814192
 C           -1.87697546       -1.30284717        3.42444430
 C           -1.25348008       -1.97787609        2.36780964
 C           -2.09097499        0.98699245        3.35543621
 C           -2.81456909       -0.24686257        3.10941741
 C           -0.42701068        2.26118820        2.16723564
 C           -1.73726154        1.77992000        2.26159879
 C           -0.07285909        3.04901172        1.08391485
 C            1.99355507        1.76958045        0.93211188
 C            1.22924557        2.83178121        0.47895662
 C            3.31626311       -0.21581652        0.48455888
 C            2.61736411        0.90911614        0.01334818
 C            2.86817116       -2.56968170        0.04230624
 C            3.46873527       -1.30703040       -0.36281835
 C            2.21191301       -3.14152843       -1.10321146
 C            0.09966945       -2.81321052        0.07484888
 C            0.76984459       -3.18673327       -1.09083219
 C           -1.91594100       -2.02219650        1.13647541
 C           -1.19268443       -2.29732731       -0.02900865
 C           -3.52011010       -0.35389123        1.93108951
 C           -3.19024362       -1.45800503        1.05149840
 C           -2.54602111        1.73746865        1.11732401
 C           -3.58757465        0.81138459        1.07251890
 C           -1.02728359        3.23237170        0.01003356
 C           -2.13897636        2.39602234       -0.05279480
 C            1.10526629        3.07276329       -0.93907609
 C           -0.26109086        3.51224983       -1.18769023
 C            2.39159114        1.07070978       -1.36998691
 C            1.72406213        2.21586981       -1.84218552
 C            3.24673325       -1.14878626       -1.77872715
 C            2.62466287       -2.37178277       -2.25999035
 C            2.77676754        0.06038428       -2.27044039
 C            0.31140285       -2.66102441       -2.36704694
 C            1.47735306       -2.25086448       -3.13640265
 C           -1.69778947       -1.95160264       -1.29352677
 C           -0.83443671       -1.87557551       -2.37924323
 C           -3.73549054       -1.10760148       -0.24161828
 C           -4.03622037        0.31813941       -0.20755055
 C           -2.93788011       -1.35174653       -1.41961923
 C           -2.67302095        2.03510356       -1.30301290
 C           -3.48106686        0.90722173       -1.40212139
 C           -3.04331273       -0.17956837       -2.26266545
 C           -0.83188999        3.25344038       -2.41932914
 C           -2.02935183        2.43129490       -2.47483801
 C            1.35500034        2.31842186       -3.18301457
 C            0.03844674        2.84061816       -3.50718303
 C            2.22263612        0.02792264       -3.54584899
 C            1.38652462       -1.10621438       -3.90961451
 C            1.59385022        1.21115164       -4.07780913
 C           -0.97194485       -0.83056420       -3.30584064
 C           -2.02788088        0.08643119       -3.17582359
 C           -1.82066771        1.42645605       -3.50455533
 C           -0.65777698        1.81869072       -4.27165825
 C            0.07534141       -0.55962035       -4.18804935
 C            0.30787337        0.80377136       -4.62640326
