   70
C70 / DATE: 7/ 1/2024 / Origin: Program Fullerene / C70 from database
 C            0.97391755       -0.17910100        4.93243268
 C            2.28044579       -0.37490157        4.33674062
 C            2.23618044       -1.62771168        3.59755374
 C            0.16234279       -1.33405929        4.57999085
 C            0.85666178       -2.05041537        3.52618317
 C           -1.17541350       -0.86129039        4.32318226
 C            0.21105075        1.01159913        4.59735358
 C           -1.15878523        0.59544397        4.37438774
 C            0.76346280        1.97775017        3.76438817
 C            2.81636100        0.64194905        3.44733411
 C            2.11800347        1.82215316        3.24624548
 C            2.93985538       -1.42526240        2.35707751
 C            3.38612419       -0.04114304        2.30204625
 C            2.43370312       -1.98342681        1.19390470
 C            0.26084690       -2.19289617        2.26780553
 C            1.07012095       -2.32017211        1.12756247
 C           -1.80730713       -1.23120387        3.07635817
 C           -1.11579674       -1.98170296        2.12033947
 C           -1.86930903        1.08045115        3.19959701
 C           -2.53498027       -0.06579870        2.62213751
 C           -0.04917283        2.57446673        2.71181730
 C           -1.26013250        1.99332599        2.34261372
 C            2.16185313        2.45059976        1.93940659
 C            0.85613898        3.03939490        1.68084182
 C            3.43043828        0.58339318        1.05298308
 C            2.85136017        1.85111536        0.88472350
 C            3.08298065       -1.60924062        0.03194277
 C            3.59409146       -0.25111024       -0.05310548
 C            2.50513905       -1.95328393       -1.24009212
 C            0.47220353       -2.55672015       -0.12094734
 C            1.26958174       -2.58114499       -1.27443356
 C           -1.68312707       -2.04416570        0.84643489
 C           -0.92427735       -2.49927627       -0.23467598
 C           -2.86472432       -0.03158719        1.28388294
 C           -2.78784765       -1.22949419        0.59861234
 C           -1.66057282        2.03166045        1.00175443
 C           -2.64355017        1.13556410        0.55686458
 C            0.41167163        3.11304221        0.36891946
 C           -0.90717073        2.75912095        0.07373776
 C            2.60599440        2.34295405       -0.39820621
 C            1.37134347        3.07133105       -0.63851312
 C            3.33799759        0.23703014       -1.39574350
 C            2.74153965       -0.84815600       -2.15287026
 C            2.86254545        1.52011452       -1.56793232
 C            1.77429461       -0.59238741       -3.11874965
 C            0.66949778       -2.68251793       -2.52278610
 C            1.03075443       -1.69285033       -3.52857768
 C           -1.53766607       -2.61018488       -1.48972702
 C           -0.75845422       -2.87687912       -2.61106520
 C           -3.39528193       -1.27454302       -0.63811618
 C           -2.84781865       -2.15416958       -1.64440266
 C           -3.05344101        1.14410631       -0.78147076
 C           -3.67051751       -0.00414448       -1.28554281
 C           -1.35166634        2.85365117       -1.24066215
 C           -2.49475756        2.06465410       -1.66532243
 C            0.96901129        2.83042654       -2.01170462
 C            1.80171323        1.75979332       -2.53360154
 C            1.20518782        0.68919080       -3.20437301
 C           -0.37862253        2.84111337       -2.32347002
 C           -2.27453912        1.70287184       -3.06120720
 C           -0.07148238        0.86456872       -3.76069433
 C           -0.86774798        1.92950726       -3.33937205
 C           -0.11055684       -1.49620099       -4.38960859
 C           -1.16046681       -2.38560290       -3.92237742
 C           -0.66916653       -0.16690894       -4.48080695
 C           -3.30698061       -1.63771374       -2.92433446
 C           -3.69840602       -0.25104777       -2.71660868
 C           -2.89085180        0.57696657       -3.58946502
 C           -2.41737101       -1.68183398       -4.06239283
 C           -2.11645298       -0.30906029       -4.44419696
