   70
C70 / DATE: 7/ 1/2024 / Origin: Program Fullerene / C70 from database
 C            1.20419771       -0.00127558        4.45466460
 C            2.44682914       -0.28307209        3.77795836
 C            2.40638632       -1.67332198        3.36089172
 C            0.36533444       -1.18916148        4.35035052
 C            1.02588392       -2.11076340        3.45826911
 C           -0.96360346       -0.74285227        4.01323369
 C            0.40403895        1.11992908        4.00429423
 C           -0.97231093        0.70288466        4.16533636
 C            0.75808072        1.82110597        2.85022048
 C            2.79421419        0.50131176        2.61292375
 C            1.95545784        1.52396950        2.17121688
 C            3.06119671       -1.76460493        2.07075423
 C            3.34702028       -0.40844139        1.62675773
 C            2.54774437       -2.66001224        1.15004064
 C            0.37972058       -2.53979871        2.29883955
 C            1.17052251       -3.11368278        1.30983441
 C           -1.62079448       -1.30208164        2.92097769
 C           -0.89123839       -2.03499240        1.96765449
 C           -2.82707628       -0.71844808        2.56110808
 C           -1.95948944        1.41867415        3.51053157
 C           -3.05694936        0.67097996        2.92571917
 C           -0.21417081        2.62380641        2.23726608
 C           -1.56298477        2.43022710        2.54098705
 C            0.09104682        3.29193255        1.05718521
 C            2.15465093        2.01095756        0.87984681
 C            1.38206793        3.07707702        0.44218783
 C            3.19920905       -0.07948145        0.28195287
 C            2.86167026        1.23260605       -0.04485822
 C            2.73862193       -2.38708996       -0.25830183
 C            3.02681374       -1.08852838       -0.67380039
 C            0.62760323       -3.32699194       -0.01359285
 C            1.71672883       -3.13601519       -0.95733562
 C           -1.41962351       -2.24033607        0.67428337
 C           -0.63056929       -2.83102319       -0.32607352
 C           -3.34370918       -0.90585544        1.22709740
 C           -2.70518330       -1.77683710        0.35461773
 C           -3.49309465        1.37841178        1.73592040
 C           -2.52941908        2.41222476        1.45106928
 C           -3.74505157        0.39645430        0.71594638
 C           -0.90095863        3.31465414       -0.00927019
 C           -2.06785070        2.57868676        0.14751444
 C            1.22993320        3.32285527       -0.97879275
 C           -0.19650189        3.29198584       -1.27151015
 C            2.93832457        1.62350686       -1.37727530
 C            2.10905032        2.71615933       -1.86002338
 C            2.78659394       -0.73693530       -2.00571456
 C            2.95749598        0.58950538       -2.39575346
 C            1.41186949       -2.77138351       -2.25544588
 C            2.07563412       -1.61264104       -2.83232238
 C           -0.97843158       -2.69937427       -1.67256893
 C            0.01743235       -2.70505133       -2.65008158
 C           -3.08297073       -1.68176888       -0.98312642
 C           -2.24782238       -2.26022790       -2.01087659
 C           -3.42572581        0.68889101       -0.60015451
 C           -2.47184475        1.69278223       -0.87051172
 C           -3.53296801       -0.38582879       -1.46739577
 C           -0.66664041        2.49193984       -2.30474628
 C           -1.82947308        1.73380167       -2.12584391
 C            1.62116951        2.35358018       -3.17717064
 C            2.24233275        1.09585093       -3.55448541
 C            0.18925611        2.21316391       -3.37124223
 C            1.20196234       -1.09031808       -3.87563038
 C           -0.07139746       -1.78681360       -3.77593218
 C            1.22398791        0.26606766       -4.17081111
 C           -0.02025693        1.02375154       -4.17629449
 C           -2.42512551       -1.46272485       -3.21461504
 C           -3.10263046       -0.23545065       -2.83267159
 C           -2.22584179        0.86680808       -3.14561868
 C           -1.25552344       -1.09350086       -3.99094283
 C           -1.23285093        0.36014353       -4.07666132
