   70
C70 / DATE: 7/ 1/2024 / Origin: Program Fullerene / C70 from database
 C            1.28264160       -0.11213327        4.48111135
 C            2.54408865       -0.33415334        3.80080007
 C            2.44696357       -1.59472405        3.08479885
 C            0.43710847       -1.26846434        4.23664914
 C            1.11613573       -2.13023554        3.29157677
 C           -0.88785444       -0.79209014        3.88878580
 C            0.51317592        1.07877457        4.16441017
 C           -0.82640501        0.65887203        3.78392931
 C            1.11518746        2.11666312        3.46836796
 C            3.02298444        0.67108861        2.86921381
 C            2.42980383        1.92527886        2.85998742
 C            2.89236193       -1.37142556        1.72469688
 C            3.29513736        0.01758260        1.59840894
 C            2.17796684       -1.93894193        0.68319955
 C            0.39846707       -2.57857653        2.18989751
 C            1.03910529       -2.70462459        0.95365769
 C           -1.61981517       -1.48728165        2.93279313
 C           -0.99438197       -2.52270727        2.22773308
 C           -2.67988281       -0.81257725        2.33740606
 C           -1.48978293        1.28771510        2.72591233
 C           -2.56732393        0.62349080        2.14617624
 C            0.31511159        2.87499119        2.52625568
 C           -0.85272174        2.31179827        2.01522165
 C            2.44559605        2.69072812        1.62744154
 C            1.24830450        3.51576627        1.62233229
 C            3.02486906        0.69507972        0.40651499
 C            2.85112161        2.08145341        0.43921475
 C            2.34033030       -1.40147232       -0.58424860
 C            2.60678191       -0.03508384       -0.71640896
 C            1.85365994       -2.12366507       -1.65975657
 C            0.34499478       -3.28821734       -0.11029736
 C            0.82643814       -3.12061325       -1.41137538
 C           -1.70102614       -3.20124192        1.24141434
 C           -0.96871941       -3.70931723        0.09339839
 C           -3.31827593       -1.37279781        1.16285578
 C           -2.95270859       -2.64494174        0.75219406
 C           -2.92615713        0.91145481        0.76959503
 C           -3.43185320       -0.30878874        0.17293985
 C           -1.22534526        2.58808937        0.69333451
 C           -2.10553889        1.74234885        0.02422607
 C            0.78118172        3.97829442        0.40523607
 C           -0.54218456        3.55739041       -0.03079400
 C            2.62391010        2.76513370       -0.74904991
 C            1.66421263        3.85675157       -0.73751762
 C            2.32224557        0.62494473       -1.91898975
 C            2.41531187        2.01454572       -1.97469074
 C            1.53488059       -1.43785934       -2.89427836
 C            1.69195970       -0.05710982       -2.96615584
 C           -0.09164842       -3.10468391       -2.54247949
 C            0.35062849       -2.06956091       -3.46313701
 C           -1.89385208       -3.75553185       -1.02454413
 C           -3.06437449       -2.97659804       -0.65460013
 C           -1.45063607       -3.29225849       -2.32642852
 C           -3.15202586       -0.57555866       -1.16268751
 C           -3.18440175       -1.89622619       -1.61465964
 C           -2.39384923       -2.27577918       -2.77163930
 C           -1.97853796        1.54375027       -1.35634217
 C           -2.55576053        0.40910147       -1.95580647
 C           -0.52671750        3.47058665       -1.48044399
 C            0.83540338        3.73047847       -1.91712513
 C            1.46632722        2.76008903       -2.78950530
 C           -1.23436231        2.45599102       -2.12244162
 C            0.95721090        0.66137490       -3.90779313
 C            0.64196005        2.04928827       -3.64253908
 C           -0.78984262        2.08634900       -3.38981877
 C           -0.59465410       -1.28857580       -4.11602872
 C           -1.96619549       -1.27624463       -3.63123463
 C           -2.27292306        0.09830214       -3.28457805
 C           -0.25354382        0.07934827       -4.45850204
 C           -1.36026582        0.92716581       -4.03578913
