   70
C70 / DATE: 7/ 1/2024 / Origin: Program Fullerene / C70 from database
 C            1.36293369        0.11178348        5.36471542
 C            0.48832700       -1.03464760        5.53856593
 C            1.12868638       -2.17551513        4.91360815
 C            2.49840915       -0.30502400        4.55811843
 C            2.40426150       -1.73741384        4.36251773
 C            2.56101565        0.55815491        3.38821149
 C            0.63546623        1.10640346        4.60116457
 C            1.47789325        1.51842515        3.49369652
 C           -0.74231505       -0.77453360        4.80880153
 C           -0.67578687        0.57312274        4.28028405
 C            0.15638731       -2.79393475        4.02503366
 C           -0.95249094       -1.86295298        3.87167081
 C            0.62529506       -3.46178011        2.90418531
 C            2.80907865       -2.26333373        3.14451152
 C            2.03933504       -3.35789638        2.57971716
 C            2.83469365        0.00255235        2.13640414
 C            3.14150159       -1.35791901        2.04738115
 C            2.41716876        0.68839733        0.98541401
 C            0.85256410        1.90103955        2.31874352
 C            1.56651795        1.78578373        1.13088714
 C           -1.15476053        0.80227676        2.99636555
 C           -0.53352483        1.78824490        2.24206815
 C           -1.41609867       -1.55537133        2.59280256
 C           -1.77884351       -0.23430110        2.30357780
 C           -0.11462950       -3.35526282        1.65715449
 C           -1.15365879       -2.43298667        1.53768547
 C            2.16063515       -3.28185814        1.13754958
 C            2.87671845       -2.06530078        0.80654032
 C            0.83903283       -3.45823398        0.56881133
 C            2.47679574        0.04577813       -0.25333858
 C            2.43542824       -1.34578704       -0.29293420
 C            2.07332993        0.73082411       -1.39923892
 C            0.99170386        2.35444382       -0.00355254
 C            1.45108486        1.97362868       -1.26517086
 C           -1.12399255        2.14678206        1.04264314
 C           -0.32102864        2.79724162        0.12002062
 C           -2.30122143        0.05677879        1.04189985
 C           -2.16784262        1.36133187        0.55423556
 C           -1.57398308       -2.07540494        0.25648678
 C           -2.42908160       -0.98513849        0.12928804
 C            0.54379819       -2.77762960       -0.60176646
 C            1.51892127       -1.95063329       -1.15172303
 C           -0.78132555       -2.44006230       -0.83859565
 C            1.78381033       -0.03204578       -2.52571223
 C            1.20224614       -1.28134806       -2.32540904
 C            1.54054746        0.62442166       -3.72192605
 C            0.88476067        2.57464037       -2.39887937
 C            1.14486070        2.01796500       -3.65483362
 C           -0.94381369        3.35403023       -0.97819448
 C           -0.20999589        3.42536906       -2.22257724
 C           -2.70586124        1.68822353       -0.69497755
 C           -2.27235156        2.86885293       -1.30144540
 C           -2.96188691       -0.71300169       -1.12235116
 C           -3.23567011        0.66649271       -1.48334546
 C           -1.09382068       -1.93336655       -2.09804494
 C           -0.03321552       -1.54518727       -2.92015429
 C           -2.33843995       -1.33826893       -2.27183157
 C            0.66738661       -0.02655480       -4.67965286
 C           -0.29598461       -0.98021957       -4.16475768
 C            0.25701270        2.27613011       -4.78180679
 C           -0.05057487        1.00189075       -5.40812204
 C           -1.21255875        3.57969178       -3.26486354
 C           -2.46846982        3.07786794       -2.72614639
 C           -0.99990891        2.95444092       -4.55067974
 C           -3.17794645        0.74866275       -2.93866300
 C           -2.57563342       -0.48795362       -3.42565823
 C           -1.62262510       -0.44976294       -4.43555746
 C           -1.47190987        0.75681465       -5.23096094
 C           -2.88431548        1.96281942       -3.55091741
 C           -2.07204108        1.98932353       -4.75697276
