   70
C70 / DATE: 7/ 1/2024 / Origin: Program Fullerene / C70 from database
 C            1.12855185       -0.14527710        4.54973305
 C            2.46800212       -0.33731720        4.02873770
 C            2.46912645       -1.57904789        3.27071490
 C            0.32121571       -1.27255034        4.10939879
 C            1.09663296       -2.02717049        3.15306531
 C           -0.95800208       -0.75833745        3.68486009
 C            0.40436129        1.07078678        4.22067329
 C           -0.94330174        0.68769319        3.84435763
 C            1.03691707        2.08368192        3.51744467
 C            3.05766839        0.69055313        3.18895437
 C            2.38166828        1.88971229        2.98389434
 C            3.21995110       -1.35272250        2.05242043
 C            3.69285567        0.02181674        2.06581959
 C            2.73895465       -1.87166510        0.85663665
 C            0.57641138       -2.23908439        1.87954262
 C            1.45691477       -2.44004970        0.81835511
 C           -1.55716126       -1.27810353        2.54508484
 C           -0.76941047       -1.96309886        1.60585113
 C           -2.69092894       -0.61195617        2.10988164
 C           -1.67124095        1.45331665        2.93183940
 C           -2.76084350        0.82421820        2.32839413
 C            0.27690268        2.84577930        2.54491288
 C           -1.06399367        2.54991181        2.29786213
 C            2.44915620        2.54703217        1.68673597
 C            1.14711086        3.12622389        1.41382523
 C            3.82868189        0.68857970        0.85232248
 C            3.15833986        1.96393740        0.64663901
 C            3.30518544       -1.40285166       -0.32651824
 C            3.70258984       -0.06967427       -0.38189872
 C            2.92257156       -2.00422049       -1.51462605
 C            0.95533708       -2.89401663       -0.39819319
 C            1.84733151       -2.96951439       -1.46525701
 C           -1.24476227       -2.16890244        0.30276089
 C           -0.42301334       -2.79927698       -0.63622639
 C           -3.22651894       -0.88842714        0.79763857
 C           -2.48579280       -1.65056373       -0.09513933
 C           -3.41380264        1.41578413        1.17643450
 C           -3.87015950        0.32504721        0.32766454
 C           -1.62047590        3.07615170        1.13122954
 C           -2.86446649        2.54894226        0.60158651
 C            0.60835304        3.07077676        0.13150735
 C           -0.74185395        3.35596772        0.00449328
 C            2.57446017        1.95401044       -0.68667893
 C            3.08751221        0.79366760       -1.37939032
 C            1.24302078        2.30724499       -0.85451425
 C            2.62002423       -1.13988029       -2.64036828
 C            2.33034359        0.19415540       -2.37821022
 C            1.35617069       -3.09628424       -2.82077048
 C            1.76996526       -1.89233819       -3.53166886
 C           -0.94830985       -3.11358274       -1.88887050
 C           -0.06337540       -3.26009357       -3.02686810
 C           -2.83652138       -1.62106775       -1.44811281
 C           -2.11901029       -2.39533662       -2.35636965
 C           -3.98918625        0.52076104       -1.04026033
 C           -3.61158313       -0.56348005       -1.93133052
 C           -2.80888829        2.66500830       -0.84696359
 C           -1.43653195        2.98693755       -1.20845728
 C           -3.50902803        1.76250239       -1.63478406
 C            0.50127929        1.73424319       -1.89699870
 C            1.04498753        0.68506542       -2.66561996
 C           -0.78249027        2.21940071       -2.16738007
 C            0.57670247       -1.25920965       -4.03836024
 C           -0.46380684       -2.26857401       -4.00725591
 C           -1.80275025       -1.83964809       -3.67024246
 C            0.25573909        0.03705276       -3.63339846
 C           -3.25193438        0.04021156       -3.19809347
 C           -2.96602289        1.43804124       -2.94222804
 C           -1.54531315        1.64107043       -3.17307943
 C           -2.12380721       -0.51392615       -3.91249060
 C           -1.04670899        0.47196380       -3.86464809
