   70
C70 / DATE: 7/ 1/2024 / Origin: Program Fullerene / C70 from database
 C            1.41706027        0.03127612        4.82593407
 C            0.64291093       -1.17631904        4.63901170
 C            1.29367294       -1.98998100        3.62226919
 C            2.61061493       -0.09050408        4.01466784
 C            2.51868231       -1.31726397        3.23761682
 C            2.75678963        1.15289554        3.29077975
 C            0.63419936        1.13111799        4.28366095
 C            1.44112338        1.77774328        3.27252999
 C           -0.72386133       -0.76624093        4.39356406
 C           -0.65923899        0.60192903        3.90066511
 C           -1.52100016       -1.65361854        3.70005574
 C            0.48714294       -2.57038430        2.64810174
 C           -0.85739861       -2.72662123        2.97370502
 C            0.86114231       -2.47440937        1.29700678
 C            2.88157929       -1.26983812        1.89634047
 C            2.12608888       -1.97654109        0.95497651
 C            3.45976872        1.10717127        2.10039131
 C            3.66340157       -0.19271272        1.47626070
 C            3.04576559        1.98890592        1.03197599
 C            0.86967099        2.08944208        2.04145609
 C            1.72073335        2.42292636        0.98923553
 C           -1.16879901        0.88781814        2.63082887
 C           -0.45387488        1.71949740        1.75965658
 C           -2.48936274       -1.11333699        2.77281567
 C           -2.20642510        0.09495488        2.13030006
 C           -1.78351613       -3.17591658        1.96190217
 C           -2.90116624       -2.24411271        1.97730642
 C           -0.04908914       -2.81254678        0.27894249
 C           -1.32131454       -3.26116222        0.59492713
 C            0.20645365       -2.44042844       -1.03953642
 C            2.50737222       -1.94182083       -0.38656035
 C            1.51312144       -2.17866110       -1.41832144
 C            3.87138240        0.04247968        0.05653235
 C            3.65108105        1.46349612       -0.17574375
 C            3.38916897       -0.88544352       -0.85539570
 C            3.13892907        1.88951107       -1.38857965
 C            1.17562753        2.79233140       -0.23635301
 C            1.99986344        2.78598897       -1.36055112
 C           -0.97776991        2.00135380        0.49772228
 C           -0.20762472        2.73701954       -0.40555284
 C           -2.69025397        0.31623414        0.83149869
 C           -2.14131057        1.35413015        0.06368905
 C           -3.26390861       -1.99433963        0.61029421
 C           -2.42511071       -2.82758510       -0.23297101
 C           -3.45183205       -0.68340084        0.20248640
 C           -0.84897705       -2.08447838       -1.89374975
 C           -2.17701253       -2.34944504       -1.51445062
 C           -0.58836156       -1.26225366       -3.00608097
 C            1.76024856       -1.25606953       -2.51101577
 C            2.90403215       -0.43553357       -2.15075871
 C            2.88134181        0.92093784       -2.44286080
 C            0.67413333       -0.68172191       -3.16416782
 C            1.40175035        2.73034105       -2.67515238
 C            1.79499800        1.45058708       -3.24932218
 C            0.79900555        0.59956018       -3.72251950
 C           -0.75917474        3.12550547       -1.62235974
 C            0.08313628        3.12892188       -2.81265117
 C           -2.66624913        1.63726138       -1.20315707
 C           -2.06189531        2.61043304       -1.99972724
 C           -3.74943772       -0.54283039       -1.14229444
 C           -3.18067355       -1.54084819       -2.03425432
 C           -3.55665245        0.73619372       -1.78043060
 C           -1.63500218       -0.84143153       -3.82385813
 C           -2.98400374       -0.91730879       -3.31815440
 C           -3.47434244        0.44553887       -3.20253454
 C           -0.30473661        1.19742205       -4.32665526
 C           -0.68374476        2.52936791       -3.88587449
 C           -2.06258592        2.46589127       -3.44876524
 C           -1.52506896        0.43735199       -4.49351565
 C           -2.63121711        1.27157352       -4.03523160
