   70
C70 / DATE: 7/ 1/2024 / Origin: Program Fullerene / C70 from database
 C            1.26410920        0.04389672        4.32872790
 C            2.58620126       -0.24511861        3.83080181
 C            2.58327912       -1.60801740        3.32279192
 C            0.43817851       -1.13339267        4.10949857
 C            1.21307744       -2.09215234        3.35335653
 C           -0.82188895       -0.68974406        3.56131633
 C            0.55460580        1.18436175        3.78396968
 C           -0.80525411        0.75847446        3.49053669
 C            1.18753991        2.06068313        2.90249310
 C            3.13348107        0.60818337        2.79791134
 C            2.48770444        1.79142396        2.43526395
 C            3.29702613       -1.61770346        2.05712242
 C            3.65539430       -0.24461550        1.74243384
 C            2.82869071       -2.43586737        1.04344219
 C            0.67103724       -2.64533796        2.19452931
 C            1.54532477       -3.09924438        1.21595272
 C           -1.38019732       -1.37724347        2.50088037
 C           -0.66085144       -2.38621966        1.84564665
 C           -2.40977431       -0.75314773        1.82180889
 C           -1.50205244        1.39147804        2.45894983
 C           -2.34056362        0.63321415        1.62842291
 C            0.37201444        2.96094785        2.22016887
 C           -1.02841143        2.62072968        2.01103000
 C            0.85232175        3.64146283        1.03196469
 C            2.95480374        2.42060953        1.28122923
 C            2.14859546        3.41942672        0.60472317
 C            3.58783326        0.22147153        0.43070232
 C            3.59364358        1.60092610        0.26249874
 C            2.87644429       -1.95386176       -0.32429976
 C            3.03388929       -0.59541591       -0.56749050
 C            1.03664785       -3.39362766       -0.10530200
 C            1.87614928       -2.69310033       -1.06645853
 C           -1.19509451       -2.93934762        0.66959671
 C           -0.33512957       -3.42029992       -0.32823899
 C           -3.17895717       -1.53977049        0.98486997
 C           -2.53683933       -2.68496476        0.36648087
 C           -4.02848470       -0.90277461        0.00604197
 C           -2.87412263        1.20824353        0.46452476
 C           -3.78122986        0.48763255       -0.31075636
 C           -1.41550919        3.10562596        0.70110349
 C           -0.23776300        3.67943015        0.06487883
 C           -2.30425478        2.36760924       -0.06605145
 C           -0.00107134        3.43553207       -1.29062649
 C            2.41416870        3.31353671       -0.81684476
 C            3.27348160        2.15933886       -1.03036371
 C            1.29881900        3.20433349       -1.73766132
 C            2.42396631       -0.03461280       -1.69861518
 C            2.63627992        1.30340990       -2.00729019
 C            1.55360069        2.06007740       -2.60046049
 C            1.25912104       -2.11039425       -2.16477419
 C            1.41345104       -0.73123058       -2.37476427
 C           -0.74322040       -3.40560937       -1.66087294
 C            0.11965984       -2.75323818       -2.63289943
 C           -3.00983980       -2.76495739       -1.00583598
 C           -3.94550790       -1.67174857       -1.22351903
 C           -2.11840202       -3.10565803       -2.00951792
 C           -3.72850946        0.60456206       -1.75839567
 C           -3.71806845       -0.73981517       -2.31586187
 C           -2.28849319        2.55799318       -1.44397607
 C           -1.05256362        2.97926916       -2.08090283
 C           -2.92964514        1.59054195       -2.31919821
 C            0.46967273        1.37301483       -3.12583635
 C            0.51210296       -0.02090915       -3.18964067
 C           -0.76647554        2.01349485       -3.12743039
 C           -1.97846970        1.24638018       -3.36675763
 C           -0.71592010       -2.09939664       -3.61007100
 C           -2.10397246       -2.33984979       -3.24715936
 C           -2.80729314       -1.06891796       -3.31403612
 C           -0.54493389       -0.68004318       -3.81225215
 C           -1.86355215       -0.06996715       -3.79150880
