   70
C70 / DATE: 7/ 1/2024 / Origin: Program Fullerene / C70 from database
 C            1.59866019       -0.03727263        4.50038744
 C            0.78985379       -1.23673720        4.39136952
 C            1.36932986       -2.08458347        3.36263252
 C            2.64463139       -0.11841864        3.49853553
 C            2.54253078       -1.40612694        2.83958857
 C            2.57224835        1.07241926        2.67310976
 C            0.75373149        1.09252198        4.15957150
 C            1.38632662        1.81087143        3.06841464
 C           -0.59322585       -0.82662534        4.24492887
 C           -0.59707089        0.60042904        3.96037777
 C           -1.43602272       -1.64726307        3.51547751
 C            0.51597018       -2.73544060        2.47351123
 C           -0.85598945       -2.73438354        2.73995986
 C            0.96850786       -3.02244977        1.18154719
 C            2.77925533       -1.45819065        1.47423863
 C            2.16872131       -2.46518089        0.72870807
 C            2.84161356        0.94459327        1.31497952
 C            3.22346279       -0.30339772        0.82461943
 C            2.29058334        1.87283885        0.42971861
 C            0.57991858        2.33137017        2.06544300
 C            1.14676309        2.58343616        0.81773353
 C           -1.31583129        1.08082894        2.86734451
 C           -0.80193433        2.16298141        2.15282875
 C           -2.45359032       -1.03882234        2.68048954
 C           -2.31922803        0.29314877        2.29216519
 C           -1.80317365       -3.05856344        1.68499070
 C           -2.83629216       -2.03168501        1.69382345
 C            0.10706792       -3.63794356        0.27337915
 C           -1.32738083       -3.55222513        0.47885625
 C            0.34683214       -3.50727038       -1.15356681
 C            2.56014295       -2.64643482       -0.59534836
 C            1.57283536       -3.03785601       -1.58603568
 C            3.62806449       -0.39555637       -0.49932053
 C            3.41050026       -1.64312114       -1.20903137
 C            2.67556931        1.83680550       -0.91495599
 C            3.30912532        0.69385008       -1.40600788
 C            2.03409200        2.66455592       -1.83311799
 C            0.39957268        3.28288983       -0.12787869
 C            0.93257685        3.49622040       -1.39147973
 C           -1.60266580        2.76666011        1.19603003
 C           -0.97054179        3.43979596        0.07461224
 C           -2.98070609        0.74302451        1.14427280
 C           -2.74759153        2.03461611        0.68519439
 C           -3.39408200       -1.60093048        0.49994452
 C           -3.57605871       -0.17503566        0.28213678
 C           -1.92811547       -3.11483904       -0.77309830
 C           -0.86178101       -2.96243342       -1.74755783
 C           -2.96158913       -2.18968093       -0.75879309
 C           -0.79463335       -1.80087428       -2.51837275
 C            1.60422346       -2.04305166       -2.64274340
 C            2.85240410       -1.32709534       -2.51391234
 C            2.82595999        0.11242525       -2.65001792
 C            0.45239446       -1.31922758       -2.93724504
 C            1.65348877        2.09703345       -3.11511167
 C            1.73916370        0.71782117       -3.26756029
 C            0.56465184       -0.02959292       -3.46816174
 C            0.03764171        3.68144495       -2.52437148
 C            0.49089001        2.81023618       -3.59692419
 C           -1.88583624        3.35716986       -1.05264026
 C           -2.86813103        2.32781462       -0.73778010
 C           -1.38631382        3.46385894       -2.34243611
 C           -3.53032611        0.05615434       -1.15224345
 C           -2.99018389       -1.14461710       -1.76811622
 C           -1.94280305       -1.01800553       -2.67813579
 C           -3.12373528        1.29337420       -1.64063235
 C           -0.58983668        0.59268468       -3.93571439
 C           -0.64044580        2.03921290       -4.05739773
 C           -1.81732690        2.50481837       -3.34113782
 C           -1.87188243        0.15730196       -3.41764800
 C           -2.56498019        1.33572401       -2.91642572
