   70
C70 / DATE: 7/ 1/2024 / Origin: Program Fullerene / C70 from database
 C            1.30588503        0.10373737        4.64845897
 C            2.51092688        0.00882959        3.85345106
 C            2.50308447       -1.29264455        3.20901418
 C            0.47519942       -1.04908424        4.32677676
 C            1.16398378       -1.82976859        3.31767612
 C           -0.85700196       -0.56648668        4.03216014
 C            0.48689332        1.29065090        4.51755596
 C           -0.88462225        0.85885569        4.30840796
 C            0.79355239        2.25262367        3.47271194
 C            2.75914919        0.99873832        2.81658001
 C            1.82607122        2.00258956        2.56279885
 C            3.05591070       -1.11930059        1.88477242
 C            3.34356431        0.28981565        1.69487200
 C            2.47981159       -1.79511623        0.82188622
 C            0.48860976       -2.17210519        2.14789802
 C            1.21273210       -2.37655142        0.97479311
 C           -1.49904265       -1.01410932        2.88666411
 C           -0.88745410       -1.96663002        2.06205172
 C           -2.47818726       -0.19778939        2.33809936
 C           -1.47948946        1.74228505        3.31335791
 C           -0.48215309        2.74511718        2.98230786
 C           -2.24240313        1.17631660        2.29228621
 C           -0.52368742        3.33757218        1.73370118
 C            1.75967399        2.55796475        1.28252613
 C            0.70339264        3.41230238        0.96543299
 C            3.19070238        0.80963914        0.41452932
 C            2.56666136        2.05121047        0.25688322
 C            2.88318637       -1.41834891       -0.45166873
 C            3.22761981       -0.07889534       -0.66523461
 C            2.47987030       -2.21852974       -1.51149621
 C            0.54919574       -2.85041503       -0.15836386
 C            1.30663155       -3.04757863       -1.31167576
 C           -1.57402488       -2.38860366        0.91869384
 C           -0.85078209       -2.73826793       -0.23659047
 C           -3.32199492       -0.76032615        1.40059199
 C           -2.91465074       -2.02230858        0.81687417
 C           -3.75858204        0.06942327        0.30167451
 C           -2.37242120        1.84838837        1.06940100
 C           -1.58042075        2.96309216        0.80688182
 C           -3.00358152        1.20088695        0.00274501
 C            0.31587755        3.59026691       -0.42087048
 C           -1.06366305        3.14472613       -0.53648072
 C            2.45762777        2.59706843       -1.02203251
 C            1.21609562        3.24301890       -1.41104262
 C            3.26928416        0.43279657       -1.95773924
 C            2.90941406        1.82143483       -2.16386278
 C            2.42665910       -1.67547926       -2.85866768
 C            2.68872822       -0.32731566       -3.04842073
 C            0.64984558       -3.19027410       -2.58770594
 C            1.26854678       -2.25480024       -3.51458391
 C           -1.51387493       -2.91786848       -1.47012965
 C           -0.77630003       -2.98517993       -2.64855713
 C           -3.60203763       -2.13686482       -0.44754991
 C           -4.18060429       -0.83270820       -0.74900778
 C           -2.85241684       -2.55970545       -1.60343520
 C           -3.84774141       -0.50557969       -2.11489800
 C           -3.22181115       -1.67721367       -2.69681496
 C           -2.53168069        1.41259731       -1.30481563
 C           -1.41028455        2.21362493       -1.50925085
 C           -2.96991856        0.61933371       -2.36258237
 C            0.72383349        2.54428967       -2.58327716
 C            1.85484169        1.85829354       -3.16744208
 C            1.66269804        0.50842449       -3.65608668
 C           -0.50000003        1.88456843       -2.51985119
 C            0.22594218       -1.36536132       -3.99324915
 C           -1.03765788       -2.00622923       -3.69499909
 C           -2.17162734       -1.21985443       -3.58740293
 C           -2.00294171        0.21016980       -3.36712029
 C            0.37010309        0.00475975       -3.78790046
 C           -0.71874607        0.75188200       -3.31370931
