   70
C70 / DATE: 7/ 1/2024 / Origin: Program Fullerene / C70 from database
 C            1.21867029        0.02002738        4.40177786
 C            2.51008940       -0.21410843        3.79867320
 C            2.49800999       -1.55893548        3.24473037
 C            0.39176920       -1.15221376        4.15635333
 C            1.12802880       -2.03136818        3.27932189
 C           -0.91130912       -0.69140215        3.72954601
 C            0.45872841        1.17732063        3.98042386
 C           -0.92360140        0.75928649        3.82923890
 C            0.98657610        2.06802627        3.05163141
 C            2.95932415        0.67977116        2.74920007
 C            2.13377602        1.71935222        2.31212659
 C            3.17489972       -1.51070999        1.95928418
 C            3.63809855       -0.14612181        1.76736061
 C            2.61581525       -2.18775080        0.87685020
 C            0.54996752       -2.43855931        2.08463170
 C            1.39121438       -2.84400518        1.05564190
 C           -1.52498319       -1.28354325        2.63278382
 C           -0.78462709       -2.12467318        1.78839812
 C           -2.65196516       -0.64584920        2.13372635
 C           -1.75769904        1.48349790        2.97747600
 C           -2.76407079        0.79773397        2.29615709
 C            0.11343708        3.03060695        2.56210704
 C           -1.30506092        2.70718868        2.47677420
 C            0.47332729        3.78519871        1.38498472
 C            2.37814163        2.28832028        1.05164140
 C            1.55544485        3.29596202        0.56403649
 C            3.77048164        0.33278575        0.47510482
 C            3.17058220        1.60992322        0.12926654
 C            3.03472350       -1.84514210       -0.41288899
 C            3.54671967       -0.57063780       -0.64141658
 C            2.52455519       -2.54409486       -1.50160417
 C            0.83376340       -3.55375218        0.00509648
 C            1.52853501       -3.56754585       -1.26253679
 C           -1.31187858       -2.50894549        0.54657322
 C           -0.58392910       -3.37790165       -0.25897533
 C           -3.14695157       -0.98582598        0.81424624
 C           -2.37838436       -1.80139359       -0.00862152
 C           -3.28522712        1.33295183        1.04986123
 C           -3.76551264        0.20768211        0.26502032
 C           -1.79221786        3.19091960        1.19219443
 C           -0.70787964        3.90309988        0.54737643
 C           -2.60600750        2.37064291        0.42061129
 C            1.07558711        3.20483512       -0.80798661
 C           -0.34122852        3.51889838       -0.79969958
 C            2.73078250        1.54192425       -1.25695513
 C            3.01738078        0.20901478       -1.74911567
 C            1.54408383        2.17049154       -1.62034810
 C            2.10860045       -1.79299439       -2.67693157
 C            2.13320308       -0.39845092       -2.62928909
 C            0.53569791       -3.48905263       -2.31790437
 C           -0.77148665       -3.33742000       -1.69844188
 C            0.97299082       -2.48315084       -3.26925573
 C           -2.52618669       -1.71411214       -1.39955801
 C           -1.66257718       -2.42075593       -2.24748135
 C           -3.84238934        0.33808866       -1.10994758
 C           -3.41780194       -0.77919433       -1.93139973
 C           -2.42913208        2.32993549       -0.96592795
 C           -1.19751234        2.70214389       -1.51764270
 C           -3.28860490        1.53455633       -1.72096328
 C            0.66136442        1.52448216       -2.49659140
 C            1.04809845        0.32838943       -3.12353459
 C           -0.66767179        1.96197514       -2.56784606
 C            0.00195458       -1.73618159       -3.91458083
 C           -1.38294558       -1.93089056       -3.52633689
 C            0.18467375       -0.30056699       -4.01711302
 C           -3.18137976       -0.23462427       -3.25253697
 C           -2.91255954        1.18402709       -3.08147910
 C           -1.54269790        1.41503713       -3.49473560
 C           -2.10705237       -0.78850252       -4.04396623
 C           -1.12656522        0.26627998       -4.26661596
