   70
C70 / DATE: 7/ 1/2024 / Origin: Program Fullerene / C70 from database
 C            1.33504599       -0.07247077        4.92399079
 C            0.56315105       -1.24162488        4.54182021
 C            1.44672163       -2.13033238        3.82660849
 C            2.58979833       -0.11714651        4.19141427
 C            2.69795162       -1.42135117        3.58645262
 C            2.63785600        1.04310988        3.32796346
 C            0.60490832        1.10210653        4.47924717
 C            1.47363659        1.86912847        3.61597900
 C           -0.63763571       -0.78228058        3.87189174
 C           -0.66102180        0.66799231        3.93381842
 C           -1.05731233       -1.39025054        2.68978621
 C            1.00372682       -2.66111360        2.55304227
 C           -0.26887606       -2.36787988        2.06751662
 C            2.97490782       -1.50481681        2.16444764
 C            2.11661076       -2.54589744        1.63738482
 C            3.05118216        0.92135795        2.00020572
 C            3.15559841       -0.34730877        1.40018326
 C            2.85296887        2.03536701        1.19508122
 C            0.90332905        2.57682446        2.56302288
 C            1.74577377        2.92283673        1.51083073
 C           -1.17118964        1.35055761        2.83678001
 C           -0.47072514        2.44492992        2.31707058
 C           -1.99560183       -0.71220803        1.91590559
 C           -2.07206800        0.68111504        2.01238776
 C           -2.52693640       -1.35012893        0.80054118
 C           -0.52586372       -2.66427170        0.72816451
 C           -1.78136694       -2.36683186        0.20426037
 C            1.83610048       -2.51984087        0.28413331
 C            0.55328528       -2.85473556       -0.14478242
 C            3.06157191       -0.47411165        0.00452395
 C            2.59881900       -1.69057272       -0.52281194
 C            2.92417005        1.90909403       -0.24305012
 C            3.13903695        0.66453759       -0.81080562
 C            1.18885129        3.41306788        0.26277623
 C            1.90462584        2.76869481       -0.82476419
 C           -1.03306195        3.13654882        1.24591878
 C           -0.17823409        3.59011091        0.15866876
 C           -2.76788739        1.40483684        1.04635923
 C           -2.26580190        2.64320335        0.64851852
 C           -3.53795729       -0.70914121        0.09271690
 C           -3.65475990        0.73313976        0.21044813
 C           -3.81168525       -1.07509680       -1.28634437
 C           -2.08244457       -2.79912293       -1.08254688
 C           -3.10751199       -2.12209331       -1.86057962
 C            0.32073712       -2.96800654       -1.51849648
 C           -0.98544961       -3.13383770       -1.97322487
 C            2.49359540       -1.86990432       -1.89406173
 C            1.31351530       -2.54811270       -2.41217622
 C            2.89787365        0.55352641       -2.17622114
 C            2.78727077       -0.75885496       -2.76717648
 C            1.22016497        2.32086942       -1.95461698
 C            1.86815776        1.39847228       -2.76718503
 C           -0.83393270        3.24460677       -1.08885062
 C           -2.22186937        2.98107249       -0.76776139
 C           -0.17429696        2.43285301       -2.01207616
 C           -3.90867734        1.26707883       -1.11588213
 C           -3.98037634        0.15407787       -2.04466271
 C           -2.98115440        2.24134410       -1.65716827
 C           -0.92314885        1.59876537       -2.85574930
 C           -3.07399518        0.43428355       -3.14648221
 C           -2.31812474        1.62524270       -2.79541272
 C           -2.60339659       -1.96555330       -3.21502553
 C           -1.33466675       -2.66618285       -3.30230248
 C           -2.41396605       -0.62555167       -3.74985986
 C            0.94265757       -1.89775819       -3.66432045
 C            1.75458283       -0.70327809       -3.78641733
 C            1.09836984        0.58838044       -3.68882541
 C           -0.28974931        0.63028966       -3.64001876
 C           -0.39925848       -1.80701485       -3.99807793
 C           -1.00654862       -0.48473871       -4.08212398
