   70
C70 / DATE: 7/ 1/2024 / Origin: Program Fullerene / C70 from database
 C            1.53502662       -0.22074269        5.01273396
 C            0.64477026       -1.36092913        4.98288203
 C            1.17664016       -2.29403153        4.00944124
 C            2.55883122       -0.42902765        3.99843033
 C            2.24994593       -1.64481191        3.28515690
 C            2.65035657        0.78531635        3.23433108
 C            0.76445368        0.93947862        4.60727950
 C            1.58552941        1.67436271        3.67901021
 C           -0.64374251       -0.90954606        4.47700101
 C           -0.52392322        0.48816136        4.12875267
 C            0.05652714       -2.75787825        3.23459418
 C           -1.04322286       -1.83407971        3.43989547
 C            0.28419347       -3.11890421        1.92546091
 C            2.17592609       -1.62403401        1.88860968
 C            1.40710255       -2.60528992        1.26344878
 C            2.87791465        0.70996359        1.86343035
 C            2.49421626       -0.45653222        1.17265060
 C            2.79747342        1.92593218        1.20373179
 C            0.96051279        2.41530562        2.68971581
 C            1.81062723        2.87073722        1.70013211
 C           -0.92482057        0.90146142        2.86037994
 C           -0.34127062        2.05063735        2.30642557
 C           -1.67730388       -1.34853791        2.29480117
 C           -1.64842267        0.02889585        2.03187863
 C           -0.84757231       -3.27726603        1.15829998
 C           -1.77532902       -2.22900795        1.21219510
 C           -0.65455219       -3.94361770       -0.03094143
 C            1.42013377       -2.69221929       -0.12945119
 C            0.61162426       -3.68272436       -0.68813680
 C            2.19636514       -0.39700741       -0.20661086
 C            1.69540006       -1.52958588       -0.86827613
 C            2.72085945        1.95576074       -0.23553940
 C            2.32244349        0.81022942       -0.90956623
 C            1.24612931        3.54573749        0.56337953
 C            2.09473898        3.22235568       -0.56748881
 C           -0.86501217        2.55655918        1.11042717
 C           -0.12995344        3.51136053        0.39234731
 C           -2.06754273        0.49306931        0.78525039
 C           -1.87841535        1.83588856        0.46975674
 C           -2.37513360       -1.78320549        0.03053898
 C           -2.45004853       -0.41095462       -0.21509522
 C           -1.69122408       -3.86869284       -1.02525655
 C           -2.51170435       -2.67575561       -1.03201293
 C            0.37469398       -3.69599954       -2.11026471
 C           -1.03741546       -3.98973126       -2.31203051
 C            1.29054335       -1.42321445       -2.21323534
 C            0.68524243       -2.50341208       -2.86156606
 C            1.75130568        0.94653612       -2.17697067
 C            1.22912504       -0.16938712       -2.82488870
 C            1.56482578        3.38474837       -1.83265760
 C            1.50733808        2.22332199       -2.70143617
 C           -0.62642542        4.00402570       -0.80900544
 C            0.28318981        4.06422109       -1.94309627
 C           -2.47116304        2.34351648       -0.67705982
 C           -1.90474659        3.52552639       -1.29210416
 C           -2.73578750        0.05098007       -1.50762315
 C           -2.84047112        1.42199228       -1.73557149
 C           -2.52806546       -2.17063500       -2.39310400
 C           -1.57477145       -2.95357104       -3.16507737
 C           -0.44650070       -2.25575036       -3.74406701
 C           -2.55195596       -0.79831234       -2.60228495
 C            0.37491439        0.01439624       -3.91360422
 C           -0.66497020       -0.95730547       -4.15741463
 C           -1.89554381       -0.30932664       -3.73196121
 C            0.39140526        2.42441496       -3.61144519
 C           -0.40483424        3.52734419       -3.10075015
 C           -1.78152903        3.27602565       -2.71912278
 C           -2.34480651        1.96791718       -2.99041459
 C           -0.25166591        1.30593851       -4.11212869
 C           -1.68047916        1.11890928       -3.86510867
