   70
C70 / DATE: 7/ 1/2024 / Origin: Program Fullerene / C70 from database
 C            1.34923640        0.04055147        4.34087587
 C            2.60739219       -0.21538062        3.68009883
 C            2.61211207       -1.60667997        3.26246260
 C            0.52477907       -1.15160005        4.22108518
 C            1.28279134       -2.14898091        3.49203448
 C           -0.76918598       -0.75184770        3.70017593
 C            0.56031736        1.16439861        3.88795010
 C           -0.78712180        0.69655707        3.61170550
 C            1.11095629        2.09490403        3.01495943
 C            2.95987755        0.59583778        2.52927326
 C            2.19969516        1.72059082        2.20533460
 C            3.16438236       -1.66883480        1.92103421
 C            3.35065869       -0.30280113        1.45757532
 C            2.65086898       -2.61035433        1.04323544
 C            0.65824335       -2.84302442        2.46013448
 C            1.44504047       -3.32993045        1.41765319
 C           -1.32888057       -1.48362060        2.66641713
 C           -0.71226675       -2.66821110        2.25038331
 C           -2.23392042       -0.84535008        1.82205742
 C           -1.49666351        1.31920630        2.58273021
 C           -2.11586506        0.52857259        1.60530348
 C            0.22587165        3.05247489        2.53724452
 C           -1.14387721        2.62982996        2.27744373
 C            0.64026824        3.91316360        1.45236801
 C            2.29878945        2.22352675        0.90215574
 C            1.70742124        3.44709504        0.59906016
 C            3.01023828        0.04295281        0.15337879
 C            2.73164446        1.38012757       -0.12794644
 C            2.52024037       -2.26933804       -0.36100511
 C            2.63766772       -0.94513259       -0.76672270
 C            0.81181380       -3.78050601        0.19014531
 C            1.44370360       -3.07338255       -0.91271924
 C           -1.34521012       -3.44791135        1.28771923
 C           -0.56143204       -3.95739066        0.17294161
 C           -2.99560716       -1.61248112        0.95441187
 C           -2.62262117       -3.00035232        0.76143906
 C           -3.35239212       -1.06129696       -0.33910294
 C           -2.41132939        1.05817687        0.33764158
 C           -2.93631956        0.22858026       -0.66342341
 C           -1.55320809        3.20743409        1.01557923
 C           -0.52104291        4.14933056        0.61445276
 C           -2.13317882        2.39725186        0.04736134
 C            1.32746415        3.74947569       -0.77040684
 C           -0.07654935        4.14131005       -0.76639221
 C            2.58108701        1.76118093       -1.45741276
 C            1.81581739        2.94990621       -1.79368894
 C            2.07892471       -0.56924306       -1.98798422
 C            2.26838583        0.73594284       -2.43432409
 C            0.65548982       -2.53160801       -1.92452984
 C            1.09858939       -1.37531143       -2.57864959
 C           -1.29060770       -3.66338246       -1.04672165
 C           -2.63385530       -3.26883610       -0.66376848
 C           -3.22671724       -2.12314482       -1.32765617
 C           -0.66724633       -2.97038018       -2.08284786
 C           -2.75940693       -1.79468984       -2.58998019
 C           -1.48626289       -2.35371421       -3.02602590
 C           -2.81417964        0.58993312       -2.00947276
 C           -2.75892999       -0.40171887       -2.98682576
 C           -2.06306522        2.80732806       -1.28078900
 C           -0.93276993        3.61264327       -1.72218479
 C           -2.37181933        1.86619009       -2.33790137
 C            0.96542978        2.62493898       -2.92891462
 C            1.36119510        1.31093255       -3.41350764
 C           -0.38026325        2.97411744       -2.90371049
 C           -1.37377775        2.03156067       -3.38766486
 C            0.42887021       -0.92734881       -3.71337264
 C           -0.90332335       -1.42515790       -3.97389371
 C           -1.78879382       -0.27509974       -4.05911790
 C            0.42609971        0.49022748       -4.02836562
 C           -0.96367250        0.91779285       -4.10879317
