   70
C70 / DATE: 7/ 1/2024 / Origin: Program Fullerene / C70 from database
 C            1.45798427       -0.00071572        4.82457067
 C            0.67809494       -1.20502985        4.60260148
 C            1.56836828       -2.19248564        4.04605494
 C            2.68761118       -0.13244394        4.05975832
 C            2.81111446       -1.51696597        3.68317615
 C            2.66417852        0.86904528        3.01259030
 C            0.71377331        1.11214725        4.26467111
 C            1.56596364        1.77140912        3.30475769
 C           -0.49899661       -0.83566272        3.84336661
 C           -0.55539476        0.61539206        3.78391727
 C           -0.85592511       -1.55470759        2.70296297
 C            1.13992081       -2.93054551        2.87374729
 C           -0.07244048       -2.62477631        2.24358211
 C            3.06726884       -1.83735097        2.29379889
 C            2.32436137       -3.05605680        2.05217755
 C            2.88962107        0.51472258        1.67568141
 C            3.03816333       -0.83594886        1.31466964
 C            2.53548139        1.45058287        0.69675387
 C            0.96719395        2.38543400        2.22113715
 C            1.74852070        2.53947991        1.09206835
 C           -1.08774419        1.19659725        2.63841127
 C           -0.41480065        2.26140197        2.03393961
 C           -1.75449176       -0.96272814        1.82694763
 C           -1.92417879        0.42508555        1.84684459
 C           -2.20619922       -1.68841794        0.73628386
 C           -0.26965400       -3.11001040        0.93966527
 C           -1.35706487       -2.64962959        0.17375767
 C            2.14824410       -3.44629610        0.74470213
 C            0.80037891       -3.75449371        0.31201834
 C            2.84102353       -1.22783625       -0.01602999
 C            2.68812577       -2.58769573       -0.29032864
 C            2.56890831        1.07756657       -0.65019867
 C            2.48537851       -0.27478836       -0.97782029
 C            2.28391934        2.02936273       -1.62898638
 C            1.28744410        3.43446492        0.14627248
 C            1.76719322        3.31446033       -1.20977306
 C           -0.96697054        2.82995661        0.87752160
 C           -0.14686876        3.65031728        0.09642990
 C           -2.59949349        1.04246541        0.80154975
 C           -2.10735611        2.25266782        0.30121627
 C           -3.26862825       -1.16668227        0.00928979
 C           -3.47617450        0.27078943        0.04407234
 C           -3.47329964       -1.61302949       -1.34637704
 C           -1.41716095       -2.92772052       -1.20733910
 C           -2.39658848       -2.32641763       -1.98862149
 C            0.86856749       -3.78201553       -1.12990651
 C            2.03790152       -3.00159422       -1.51399103
 C           -0.25343008       -3.27521852       -1.87692458
 C            1.84630668       -0.65474094       -2.16973928
 C            1.59369502       -1.98774849       -2.44103951
 C            0.26049202       -2.35089432       -2.87244777
 C            1.53385780        1.62086576       -2.80383886
 C            1.14014517        0.29417154       -2.89946936
 C            0.67917208        3.68391494       -2.09746032
 C           -0.49881383        3.94269445       -1.28212160
 C            0.60481675        2.68409185       -3.14811892
 C           -2.60706342        2.76474772       -0.89740958
 C           -1.73944379        3.55080260       -1.75952495
 C           -3.87434705        0.70351521       -1.28353555
 C           -3.79685279       -0.45337904       -2.16129009
 C           -3.43615276        1.93188931       -1.75416920
 C           -1.96045745       -1.53891453       -3.13329477
 C           -0.59188328       -1.34861110       -3.32721867
 C           -0.09881406       -0.04504015       -3.46231323
 C           -2.88110283       -0.42605720       -3.29145783
 C           -0.63870531        2.35474413       -3.66589961
 C           -1.81984453        2.98391527       -3.09561186
 C           -2.89397909        2.00891822       -3.10136899
 C           -0.95923028        0.95782059       -3.90825496
 C           -2.39363863        0.79720948       -3.72908455
