   70
C70 / DATE: 7/ 1/2024 / Origin: Program Fullerene / C70 from database
 C            1.33101711       -0.17007296        4.64948464
 C            2.63830325       -0.48124157        4.10347952
 C            2.63878093       -1.88025157        3.71564662
 C            0.49511345       -1.35225775        4.51474948
 C            1.31165146       -2.42166087        3.97394479
 C           -0.71447182       -0.96658232        3.80816244
 C            0.59756274        0.95723856        4.10218634
 C           -0.70871110        0.48031493        3.68328685
 C            1.25969733        1.87279675        3.29776982
 C            3.12758549        0.29448261        2.97722945
 C            2.54209831        1.51949797        2.69421097
 C            3.19573811       -1.97342584        2.37345043
 C            3.38999999       -0.62061031        1.87806976
 C            2.70328436       -2.94129468        1.51251947
 C            0.74932936       -3.27986254        3.03965162
 C            1.58116852       -3.75561522        1.94850418
 C           -1.15870207       -1.73496524        2.73188419
 C           -0.56477177       -2.97230596        2.48408341
 C           -1.92465255       -1.12385806        1.73260938
 C           -1.32254358        1.04410440        2.57150587
 C           -2.18255993        0.24482534        1.82703327
 C            0.49746569        2.60129515        2.29880296
 C           -0.80127415        2.20719309        1.99111032
 C            2.50378246        1.96973392        1.31593528
 C            1.39686789        2.89776983        1.20528058
 C            2.97471883       -0.28095037        0.58778725
 C            2.71357160        1.05987552        0.28023381
 C            2.48338673       -2.60264560        0.11616463
 C            2.60148532       -1.28312816       -0.31379158
 C            0.72168220       -3.97816000        0.80272422
 C           -0.61531239       -3.52818904        1.14428322
 C            1.35711976       -3.38400569       -0.35953236
 C           -2.15449008       -1.79168117        0.52239914
 C           -1.33136059       -2.85914366        0.16320767
 C           -2.92007837       -1.18108680       -0.47770650
 C           -2.99073534        0.85646840        0.88462968
 C           -3.44274687        0.09276381       -0.26071421
 C           -1.36540873        2.67744143        0.80101858
 C           -2.60681351        2.17440007        0.41709934
 C            0.84933113        3.09577721       -0.04857890
 C           -0.53019203        3.26440731       -0.15818227
 C            2.25378524        1.40053669       -0.99453790
 C            1.54448759        2.59702038       -1.14372076
 C            2.00176263       -0.92248594       -1.51874685
 C            2.10744791        0.39375239       -1.94927298
 C            0.53447870       -2.81862121       -1.32409535
 C           -0.84173245       -2.90510002       -1.13766679
 C            1.02571470       -1.75586492       -2.07937330
 C           -2.83488721       -1.67743681       -1.77870919
 C           -1.66365748       -2.44794350       -2.15168472
 C           -3.16300362       -0.82224813       -2.90727811
 C           -3.60511430        1.02512380       -1.37011844
 C           -3.05923246        2.30945682       -0.95693831
 C           -3.42763829        0.58314210       -2.67454944
 C           -1.04656259        3.62949691       -1.40009312
 C           -2.30781459        3.06375094       -1.84698439
 C            1.15089412        3.01092698       -2.40913112
 C           -0.14501911        3.65488071       -2.54192375
 C            1.64793870        0.71441167       -3.22051280
 C            1.30563561        2.09186844       -3.51697059
 C            0.25403589       -1.29652613       -3.15026582
 C           -1.05164643       -1.77058123       -3.28023190
 C           -2.07298082       -0.92199225       -3.86643196
 C            0.63978319       -0.13748937       -3.82333202
 C           -2.59868496        1.34947347       -3.59259458
 C           -2.13543758        2.60807222       -3.21870656
 C           -0.83111353        3.05744082       -3.67508718
 C            0.07119532        2.09852815       -4.28487804
 C           -1.71260163        0.41736798       -4.28239802
 C           -0.36594969        0.72364812       -4.43539939
