   70
C70 / DATE: 7/ 1/2024 / Origin: Program Fullerene / C70 from database
 C            1.60706145       -0.00188364        4.62099877
 C            0.80048486       -1.20254527        4.51034298
 C            1.25986640       -1.95385972        3.35480037
 C            2.59571220       -0.04010274        3.56161240
 C            2.44266008       -1.28473070        2.83846143
 C            2.48161261        1.18666057        2.80569287
 C            0.73689913        1.13435752        4.36750841
 C            1.25075984        1.84212164        3.21340156
 C           -0.58709813       -0.79694734        4.55084958
 C           -0.62287331        0.64437014        4.31903956
 C           -1.50865238       -1.59038335        3.88623137
 C            0.31547647       -2.45320540        2.45451256
 C           -1.03071963       -2.47717145        2.82846913
 C            0.66193199       -2.57571933        1.10228263
 C            2.63424820       -1.26502818        1.46545604
 C            1.94231987       -2.19044838        0.69912475
 C            2.75520617        1.14182229        1.44910645
 C            3.06691853       -0.08448232        0.85311290
 C            2.18398732        2.12096279        0.65361851
 C            0.36438066        2.25722145        2.21983223
 C            0.87809854        2.52652789        0.94366258
 C           -1.48920529        1.15162585        3.35242343
 C           -1.01178142        2.05252531        2.38772493
 C           -2.72085050       -0.95695392        3.40646479
 C           -2.67893449        0.46363077        3.11957470
 C           -2.05383855       -2.53089121        1.80081381
 C           -3.12732236       -1.63518680        2.19049721
 C           -0.33622773       -2.77953268        0.13960239
 C           -1.67041810       -2.54491834        0.46931229
 C            0.00602907       -2.90346294       -1.21070793
 C            2.31823562       -2.33693451       -0.62506091
 C            1.33981265       -2.78696093       -1.59447357
 C            3.33222355       -0.10011214       -0.52120076
 C            3.10430385       -1.27862927       -1.23804805
 C            2.68236790        2.25593591       -0.62979715
 C            3.38722028        1.12029953       -1.19666333
 C            1.83567317        2.80927256       -1.66359492
 C            0.01943162        2.92135877       -0.08938677
 C            0.47799217        2.95770976       -1.40983696
 C           -1.88434348        2.52575958        1.41269980
 C           -1.34580163        3.02504784        0.15865672
 C           -3.40535681        0.67279560        1.88092417
 C           -3.55708966       -0.62318013        1.23911945
 C           -3.08459143        1.76625812        1.09805122
 C           -2.49478667       -1.92430305       -0.46404330
 C           -3.18173810       -0.76908093       -0.09416486
 C           -0.99801038       -2.79084530       -2.17240625
 C           -2.24867773       -2.15280906       -1.80594195
 C           -0.66601329       -2.35069236       -3.51646451
 C            1.68693434       -2.19287834       -2.87937633
 C            2.75796771       -1.23527171       -2.65342485
 C            0.68479974       -1.90629742       -3.79730096
 C            3.20664596        1.16719552       -2.63651258
 C            2.27066392        2.24155996       -2.92948658
 C            2.75598387       -0.02225381       -3.32974677
 C            0.60272686       -0.57856968       -4.38847226
 C            1.27289969        1.73054687       -3.85041816
 C            1.61328582        0.34756413       -4.15201068
 C           -0.42919099        2.83148869       -2.46323545
 C           -0.05541458        2.08871892       -3.65877608
 C           -2.28685027        2.66659911       -0.88899975
 C           -3.13816921        1.62924820       -0.34533928
 C           -3.11265980        0.35843664       -0.91896625
 C           -1.81990794        2.52424247       -2.18303319
 C           -2.47518597       -1.06936700       -2.74216177
 C           -1.57817608       -1.27280791       -3.86699392
 C           -0.78989128       -0.15667684       -4.35112801
 C           -1.11275160        1.12587742       -3.92687965
 C           -2.68126754        0.21354370       -2.24099273
 C           -2.14902575        1.31383858       -2.91893553
