   70
C70 / DATE: 7/ 1/2024 / Origin: Program Fullerene / C70 from database
 C            1.58609093       -0.01139495        4.63131922
 C            0.72491611       -1.15959955        4.44536929
 C            1.33728997       -2.01269955        3.44462345
 C            2.62659674       -0.07487096        3.61665132
 C            2.38949009       -1.24343195        2.80465611
 C            2.66094551        1.20309301        2.95664403
 C            0.78980719        1.17194463        4.36230165
 C            1.56484927        2.00277593        3.48144507
 C           -0.61808426       -0.67356142        4.19195760
 C           -0.50997203        0.74648210        3.89574382
 C           -1.43410468       -1.45464988        3.39522676
 C            0.50440020       -2.75786695        2.62591461
 C           -0.87612094       -2.66561751        2.81442911
 C            0.96625376       -3.08097199        1.35630909
 C            2.37005936       -1.12396223        1.41458032
 C            1.78673779       -2.15917538        0.68927855
 C            2.87666893        1.25609133        1.58110222
 C            2.54288270        0.13092999        0.80165653
 C            2.73261842        2.52102673        1.02320961
 C            0.90253986        2.79179009        2.56039751
 C            1.74696931        3.39094183        1.64544757
 C           -0.97052000        1.23862061        2.67038901
 C           -0.36268634        2.36911838        2.10120807
 C           -2.19927451       -0.81610107        2.34181883
 C           -1.84034619        0.46013038        1.90136476
 C           -1.75888494       -3.04179409        1.72200102
 C           -2.50414631       -1.84583011        1.36001812
 C            0.19627908       -3.96432228        0.61419692
 C           -1.24785556       -3.83567477        0.70671206
 C            0.52985634       -4.18229266       -0.77655419
 C            1.76413768       -2.08457751       -0.70101098
 C            1.38446113       -3.21075034       -1.42443390
 C            2.19488166        0.28612684       -0.55645461
 C            1.82375914       -0.82920121       -1.31641378
 C            2.56468905        2.66014943       -0.40387414
 C            2.13456393        1.55925805       -1.13568009
 C            1.16553280        4.20898501        0.62010397
 C            1.91127969        3.94080419       -0.59466679
 C           -0.84914777        2.86445872        0.87919628
 C           -0.22644157        3.98190382        0.31686520
 C           -2.11480454        0.82068107        0.58042207
 C           -1.68285358        2.05748763        0.08592718
 C           -2.59553422       -1.47513243        0.02609024
 C           -2.68684974       -0.12306592       -0.27749857
 C           -1.72487259       -3.62435597       -0.64605913
 C           -0.72208812       -4.20978540       -1.51245332
 C           -2.28391312       -2.39133062       -0.98597043
 C            0.88276528       -3.05479580       -2.76943571
 C           -0.47475463       -3.58894316       -2.79215915
 C            1.32052404       -0.64303473       -2.61313801
 C            0.82656186       -1.72522421       -3.33771789
 C            1.44030864        1.74905663       -2.33859773
 C            0.96742874        0.63841453       -3.03386047
 C            0.97678595        4.07568858       -1.68220271
 C           -0.35201787        4.23628376       -1.09865555
 C            0.87046375        2.99121575       -2.63151867
 C           -2.01270553        2.44173489       -1.22707720
 C           -1.24708988        3.40945963       -1.87148566
 C           -0.50828827        3.02327558       -3.06139131
 C           -3.04553116        0.23550189       -1.56134213
 C           -2.71242661        1.55863656       -2.04657884
 C           -2.27032477       -1.96431312       -2.32109739
 C           -1.33801544       -2.50484720       -3.21348128
 C           -0.47936286       -1.60355098       -3.95713428
 C           -2.82326280       -0.72286665       -2.63256449
 C           -0.09916529        0.79832446       -3.92773221
 C           -0.97698926        1.94711289       -3.78751333
 C           -2.27910987        1.41941022       -3.42758093
 C           -0.95261303       -0.33525190       -4.23584222
 C           -2.28323658        0.00792928       -3.76540008
