   70
C70 / DATE: 7/ 1/2024 / Origin: Program Fullerene / C70 from database
 C            1.29962696       -0.06136171        4.59372527
 C            2.59091757       -0.36456693        4.00426449
 C            2.54396366       -1.72280071        3.50127685
 C            0.46367871       -1.23769021        4.46375828
 C            1.28878453       -2.31253080        3.93618900
 C           -0.74118598       -0.85971918        3.73402081
 C            0.55389535        1.06726476        4.07136630
 C           -0.66745234        0.56114500        3.46197507
 C            1.24587564        2.06343764        3.40562977
 C            3.07034631        0.48306934        2.93117494
 C            2.55547132        1.76337647        2.82312523
 C            2.84153498       -1.68914167        2.07368624
 C            3.15587944       -0.32215136        1.72068467
 C            2.06144639       -2.45770655        1.21920826
 C            0.68476141       -3.21935359        3.08600247
 C            1.31577714       -3.47527189        1.80536002
 C           -1.21393919       -1.72122331        2.75282913
 C           -0.71436078       -3.02048035        2.76412792
 C           -1.74434931       -1.19513686        1.56324891
 C           -1.05688187        1.04506876        2.21383840
 C           -1.60357937        0.17099762        1.27208328
 C            0.52946001        2.84420609        2.41823141
 C           -0.60203740        2.30008068        1.80401884
 C            2.57391980        2.39255182        1.51949402
 C            1.55618279        3.41821584        1.57879069
 C            2.68250341        0.20538818        0.52246584
 C            2.64061185        1.59277963        0.37557803
 C            1.66625995       -1.93611827       -0.02649530
 C            1.95491982       -0.60414073       -0.35746704
 C            0.86512611       -2.70636078       -0.88334795
 C            0.32450875       -4.16224649        1.02051734
 C           -0.96953085       -3.88217005        1.63874470
 C            0.19060498       -3.82034975       -0.37478935
 C           -2.23888131       -2.06648973        0.58136355
 C           -1.82610920       -3.40153522        0.58290771
 C           -1.22845827       -3.92511755       -0.62476045
 C           -2.71782002       -1.55335839       -0.62785906
 C           -1.99324601        0.66226155        0.02410612
 C           -2.69977304       -0.16925166       -0.84844300
 C           -0.97808296        2.80408788        0.55612247
 C           -1.70035580        1.99144548       -0.33233144
 C            1.15613758        3.96903280        0.38573927
 C           -0.25163158        3.89038874        0.06230385
 C            2.20754460        2.14308987       -0.82885896
 C            1.80802926        3.48254911       -0.80780903
 C            1.45675629       -0.04959710       -1.54055718
 C            1.72759604        1.29274105       -1.83371070
 C            0.38541573       -2.15987409       -2.08088686
 C            0.68089720       -0.82866877       -2.41528215
 C           -1.68791077       -3.41377144       -1.80920337
 C           -2.73663107       -2.42567041       -1.72258895
 C           -0.71129755       -2.79300188       -2.67561400
 C           -2.82849564       -1.89969179       -3.06385573
 C           -1.50453271       -2.08810780       -3.65548706
 C           -3.15692873        0.34328007       -2.06118554
 C           -3.18662438       -0.51442085       -3.22875702
 C           -2.00623951        2.46443434       -1.62164229
 C           -2.66258403        1.62587795       -2.51763768
 C           -0.32352765        4.22184720       -1.34228959
 C            1.01506790        4.01420299       -1.89142740
 C           -1.24172955        3.49059119       -2.17501524
 C            1.29377833        1.83308135       -3.04111385
 C            0.87740957        3.22099996       -3.08749532
 C           -0.53359361        3.22064278       -3.40969162
 C            0.10520798       -0.24762100       -3.56248064
 C           -1.05427637       -0.79904290       -4.10443389
 C           -2.23676306        0.03531046       -4.17228942
 C           -2.07110687        1.42726936       -3.84153775
 C            0.33724250        1.09678925       -3.83896888
 C           -0.81722309        1.96823654       -4.06264542
