   70
C70 / DATE: 7/ 1/2024 / Origin: Program Fullerene / C70 from database
 C            1.68107131       -0.00963798        4.41070718
 C            0.82202034       -1.17558207        4.33925935
 C            1.34740822       -2.04495993        3.30495339
 C            2.58257389       -0.05422254        3.27035556
 C            2.35774076       -1.29934478        2.57569325
 C            2.42314733        1.17604843        2.52922967
 C            0.84086441        1.16105798        4.25427065
 C            1.43393513        1.98367614        3.22235069
 C           -0.55165007       -0.72254057        4.22145758
 C           -0.52464782        0.72066485        4.05151980
 C           -1.41797165       -1.47478043        3.44524601
 C            0.45725896       -2.80926668        2.56318838
 C           -0.91463537       -2.67316763        2.79607219
 C            0.86302991       -3.23877832        1.30509811
 C            2.28981276       -1.30157761        1.18727947
 C            1.73694128       -2.42067609        0.57208260
 C            2.37118329        1.13578003        1.13528941
 C            2.36351953       -0.09818555        0.46828456
 C            1.87212856        2.26015431        0.47810226
 C            0.59160317        2.74644818        2.43224511
 C            1.10047750        3.17079111        1.21444459
 C           -1.24438540        1.31575013        3.01782354
 C           -0.79017839        2.53780948        2.52216355
 C           -2.27147735       -0.80391989        2.47822695
 C           -2.07743740        0.54014194        2.20387583
 C           -1.84529448       -2.97137141        1.71758308
 C           -2.47866880       -1.71283272        1.36210310
 C            0.00139116       -4.09075091        0.62863463
 C           -1.41683864       -3.79504744        0.69455053
 C            0.29709019       -4.44286939       -0.74107067
 C            1.79505859       -2.52065512       -0.81583351
 C            1.31340631       -3.68029899       -1.42794737
 C            2.17012028       -0.12784110       -0.91873569
 C            2.05169560       -1.36499009       -1.56724758
 C            1.84312889        2.27839321       -0.91729977
 C            1.96687814        1.07198762       -1.62938482
 C            1.42154371        3.43913387       -1.57077154
 C            0.40961951        4.18373221        0.56926553
 C            0.64688901        4.41726259       -0.83556591
 C           -1.60870947        3.20126892        1.61239801
 C           -1.01971878        4.24448073        0.79261733
 C           -2.41998152        1.01221407        0.93929403
 C           -2.43962927        2.38364383        0.74343626
 C           -2.36852820       -1.22897382        0.05323533
 C           -2.33205322        0.15055771       -0.16101577
 C           -1.80039410       -3.45460993       -0.65918682
 C           -0.93576498       -4.26055353       -1.49302542
 C           -2.02424978       -2.10945320       -0.97707883
 C            0.88536952       -3.64288780       -2.80744508
 C           -0.56771021       -3.75177264       -2.78810381
 C            1.92154377       -1.38748496       -2.95097188
 C            1.20901871       -2.47723006       -3.59068147
 C            1.60859033        1.03538775       -2.99056512
 C            1.44769204       -0.19571033       -3.60804436
 C            0.78542329        3.32210378       -2.85907353
 C            0.74791744        2.01763373       -3.46105387
 C           -0.65321979        4.53355061       -1.48619623
 C           -1.66214824        4.19431476       -0.50539512
 C           -2.33566194        2.90750899       -0.60256685
 C           -0.59485835        3.74600719       -2.69510005
 C           -2.03506922        0.65536307       -1.43375943
 C           -0.64779862        1.64056612       -3.61156241
 C           -2.02997676        2.04026215       -1.65113300
 C           -1.40822244        2.54475122       -2.78867937
 C           -1.66196175       -1.60775653       -2.23806680
 C           -1.07853180       -2.45922465       -3.18798253
 C           -0.05453380       -1.92546301       -4.05119821
 C            0.10437534       -0.50018544       -4.07193934
 C           -1.63519396       -0.21837999       -2.45970937
 C           -0.91436664        0.28453640       -3.55894599
