   70
C70 / DATE: 7/ 1/2024 / Origin: Program Fullerene / C70 from database
 C            1.40836244       -0.03652661        4.96379368
 C            0.62576112       -1.25004691        4.84014771
 C            1.36158959       -2.18192274        3.99767225
 C            2.59524675       -0.19882012        4.14676714
 C            2.48549432       -1.45853679        3.42995582
 C            2.74485128        1.00955538        3.36573911
 C            0.63174495        1.04783724        4.38521331
 C            1.46014346        1.69528900        3.38963720
 C           -0.71637321       -0.86628967        4.44067370
 C           -0.64638081        0.50839597        3.96775422
 C           -1.46072793       -1.78023550        3.71227382
 C            0.63856149       -3.04146951        3.18678480
 C           -0.81137823       -3.00779507        3.27450185
 C            0.98318123       -3.13805650        1.77657723
 C            2.69693928       -1.45722626        2.04854414
 C            1.87212405       -2.22153871        1.21367727
 C            3.38509432        0.89967968        2.14440309
 C            3.43801795       -0.41168723        1.50607341
 C            3.01770682        1.83130783        1.10143709
 C            0.88902937        2.07449998        2.17643993
 C            1.74057578        2.39082790        1.11879402
 C           -1.12502926        0.81583436        2.69530755
 C           -0.44253013        1.74155841        1.89666099
 C           -2.26678595       -1.30329561        2.60226451
 C           -2.09862789       -0.00188285        2.12069181
 C           -1.33986576       -3.35079345        1.96841862
 C           -0.22837752       -3.48415978        1.05080776
 C           -2.36509339       -2.38574304        1.64014372
 C           -0.38950110       -2.99420112       -0.23719195
 C            1.75827377       -1.91691640       -0.15217357
 C            0.72739399       -2.50093322       -0.89731658
 C            3.42788456       -0.19124479        0.07078877
 C            3.50051296        1.24504749       -0.12977027
 C            2.57260463       -0.93591799       -0.73351226
 C            3.02001401        1.76735929       -1.31395265
 C            1.19202820        2.82940195       -0.08401980
 C            1.98773585        2.78055688       -1.22812842
 C           -0.97631920        2.09619133        0.65763767
 C           -0.19641553        2.84727172       -0.22312686
 C           -2.56322099        0.28646801        0.83559453
 C           -2.12064866        1.44323336        0.18864068
 C           -2.52340017       -2.02841693        0.31384084
 C           -1.65486798       -2.55798650       -0.64432958
 C           -3.04766251       -0.77268473        0.06877623
 C           -1.83588210       -2.15766138       -1.97347973
 C            0.60711014       -2.22287990       -2.25026001
 C           -0.72623328       -2.12151139       -2.82233838
 C            2.29388052       -0.46853034       -2.02186385
 C            2.59201487        0.85088237       -2.35380877
 C            1.42654040       -1.18131141       -2.83657567
 C            1.36114061        2.84167080       -2.53182180
 C            1.68462703        1.59390580       -3.21591455
 C           -0.75639213        3.29417656       -1.41701640
 C            0.07016411        3.33141144       -2.61583689
 C           -2.63205407        1.75531583       -1.07557849
 C           -2.06634637        2.80306238       -1.80145258
 C           -3.48784715       -0.52661456       -1.21609884
 C           -2.95093831       -1.37040745       -2.26812258
 C           -3.46204381        0.83113810       -1.71110603
 C           -3.00222474       -0.60436765       -3.50110873
 C           -3.47958124        0.72773256       -3.16096444
 C           -0.66024151       -1.16127265       -3.91729176
 C            0.62131408       -0.47612940       -3.82627373
 C            0.68556031        0.91613328       -3.91249117
 C           -1.79509526       -0.45374892       -4.28752218
 C           -0.74698278        2.89632189       -3.72996457
 C           -2.11391821        2.79937494       -3.25644183
 C           -2.72611622        1.68085440       -3.94334288
 C           -0.41737068        1.63599292       -4.37256638
 C           -1.67075016        0.95047401       -4.63367028
