   70
C70 / DATE: 7/ 1/2024 / Origin: Program Fullerene / C70 from database
 C            1.64770311       -0.03853480        4.71002030
 C            0.81285415       -1.21486322        4.55951359
 C            1.33001094       -1.99764752        3.44828687
 C            2.63180836       -0.05953595        3.64361895
 C            2.46566316       -1.28393968        2.89110245
 C            2.53070196        1.18761210        2.92215226
 C            0.80499736        1.12788266        4.50946475
 C            1.34479164        1.88344511        3.39190648
 C           -0.56967422       -0.77747729        4.51362300
 C           -0.57163665        0.67901018        4.44505471
 C           -1.45509887       -1.50311482        3.72788930
 C            0.42947750       -2.59947458        2.57342330
 C           -0.93396812       -2.56132527        2.87580797
 C            0.83076130       -2.85496757        1.25939472
 C            2.59366788       -1.23198446        1.50866816
 C            1.96687003       -2.21486000        0.75132151
 C            2.76248901        1.18179004        1.55768699
 C            2.96892937       -0.03135491        0.89021012
 C            2.24674913        2.23848427        0.83213810
 C            0.47518420        2.42765357        2.44313794
 C            0.96702827        2.69700489        1.16114285
 C           -1.43452864        1.32577002        3.56984904
 C           -0.90310222        2.30425601        2.62780040
 C           -2.48885587       -0.81282262        2.97200681
 C           -2.47023459        0.57045576        2.88429358
 C           -1.91040442       -2.77624343        1.82245451
 C           -2.76009507       -1.59782077        1.77834930
 C           -0.06459513       -3.47803293        0.39144578
 C           -1.48985236       -3.33649999        0.62746878
 C            0.15157748       -3.42269178       -1.04472562
 C            2.27754553       -2.30127932       -0.59938531
 C            1.32892388       -2.88806844       -1.52940563
 C            3.14581794       -0.00520223       -0.50202129
 C            2.89443151       -1.15646022       -1.24607823
 C            2.72796594        2.40992274       -0.45228820
 C            3.18193055        1.22569563       -1.16055203
 C            1.97123611        3.22650182       -1.37335225
 C            0.07104737        3.03317793        0.13935134
 C            0.56710794        3.43887119       -1.09274017
 C           -1.78227639        2.31833667        1.47008948
 C           -2.69953646        1.20296573        1.59857623
 C           -1.24801130        2.59691549        0.21773271
 C           -2.97522438       -0.96616744        0.55453344
 C           -2.95243441        0.43311243        0.47178624
 C           -2.08810439       -2.87493245       -0.61339590
 C           -1.10633892       -3.05638339       -1.67229222
 C           -2.87855721       -1.72669223       -0.61615940
 C           -1.12865991       -2.18100072       -2.75660085
 C            1.29332855       -2.05561559       -2.71633091
 C            2.33044740       -1.04398630       -2.58439222
 C            0.07845198       -1.70825409       -3.30135730
 C            2.70963550        1.32526892       -2.53507127
 C            2.08405385        2.62665156       -2.68913106
 C            2.13348124        0.21400579       -3.14813927
 C           -0.17553513        3.10708583       -2.29636145
 C            0.78346418        2.69648460       -3.31669191
 C           -1.86645310        2.06832772       -0.92198952
 C           -2.80451768        1.03453737       -0.77280087
 C           -1.39141233        2.43127852       -2.19138057
 C           -3.13414136       -1.11689887       -1.83994594
 C           -2.32181215       -1.49527134       -2.98353335
 C           -3.24761053        0.32569209       -1.87674358
 C           -1.90620035        1.82395469       -3.33566032
 C           -2.37217658       -0.39618269       -3.92441334
 C           -2.87936510        0.76362453       -3.20416639
 C            0.08486736       -0.64864060       -4.20775716
 C            1.09820557        0.38840273       -4.07252615
 C            0.42709335        1.68027972       -4.18769041
 C           -1.15418498       -0.00377500       -4.59186139
 C           -0.98570181        1.42354420       -4.38436054
