   70
C70 / DATE: 7/ 1/2024 / Origin: Program Fullerene / C70 from database
 C            1.33736204       -0.17020029        4.54668470
 C            2.61439379       -0.43408136        3.91193932
 C            2.57753486       -1.78417596        3.37946863
 C            0.49268781       -1.33860871        4.35788099
 C            1.27149474       -2.35071490        3.66996323
 C           -0.76044737       -0.89631001        3.76934882
 C            0.58114267        0.99811878        4.13287806
 C           -0.74223866        0.55544615        3.73156387
 C            1.20806704        1.98437950        3.38643416
 C            3.06453714        0.45114627        2.85219555
 C            2.47242468        1.69648786        2.71266949
 C            3.02799169       -1.73450305        1.99763003
 C            3.29631264       -0.34933852        1.66049162
 C            2.39470773       -2.52850963        1.05266779
 C            0.65272380       -3.11074336        2.68924990
 C            1.37493341       -3.38988459        1.46153923
 C           -1.29521839       -1.59212340        2.68470925
 C           -0.71825316       -2.80372861        2.30127658
 C           -2.12870895       -0.91364413        1.78871475
 C           -1.39660362        1.19102320        2.68346426
 C           -2.33098166        0.46001674        1.96313558
 C            0.40852256        2.78424519        2.47522908
 C           -0.87430115        2.36434509        2.12504541
 C            2.39154791        2.28212595        1.38916810
 C            1.30396562        3.24007543        1.43188325
 C            2.89447853        0.12888562        0.41188797
 C            2.53771461        1.47242999        0.26106466
 C            2.44764408       -2.14549950       -0.28497641
 C            2.58811634       -0.78391953       -0.60044827
 C            1.90286426       -3.01979443       -1.21751340
 C            0.38140732       -3.81979828        0.49246726
 C           -0.89330161       -3.27754051        0.93622957
 C            0.70102710       -3.74399002       -0.85172264
 C           -2.47587560       -1.52185878        0.57595428
 C           -1.66165535       -2.52189136        0.05728724
 C           -3.38442366       -0.90367680       -0.27225029
 C           -3.17435657        1.14949423        1.10794960
 C           -3.86223588        0.42024808        0.06451331
 C           -1.46777122        2.89762020        0.97351558
 C           -2.69894301        2.40137878        0.54948134
 C            0.75767657        3.65577235        0.23381316
 C           -0.68744642        3.62149563        0.07150339
 C            2.01788059        1.91860066       -0.95613270
 C            1.32220895        3.12823195       -0.99186722
 C            2.24829747       -0.30651995       -1.87184446
 C            1.93103066        1.04371625       -2.04146773
 C            1.74368840       -2.59161522       -2.58790071
 C            1.98345951       -1.20232120       -2.90560144
 C           -0.32402418       -3.31597063       -1.78298210
 C           -1.38411927       -2.54534684       -1.31449039
 C            0.37171656       -2.89150129       -2.97662327
 C           -3.12972833       -0.93866588       -1.70213155
 C           -2.00409107       -1.61995721       -2.16512258
 C           -3.83413996        1.22900562       -1.13994850
 C           -3.02738679        2.40636021       -0.86938136
 C           -3.46281882        0.36853971       -2.24633149
 C           -0.95291030        3.51413960       -1.35710103
 C            0.33430438        3.35584092       -2.02639919
 C           -2.06551089        2.79746766       -1.79703813
 C            1.31259361        1.46990979       -3.22233401
 C            0.41082240        2.61008686       -3.18846663
 C            0.99896940       -0.84889008       -3.90767177
 C           -0.13105670       -1.74025648       -3.69369899
 C           -1.36139501       -1.19102553       -3.33799386
 C            0.74399246        0.49193729       -4.13631754
 C           -2.67122642        0.89524596       -3.25168424
 C           -2.04831171        2.19908614       -3.05836295
 C           -0.82313691        2.21655119       -3.83819498
 C           -1.69861301        0.03789534       -3.90207612
 C           -0.62901169        0.88925588       -4.39482309
