   70
C70 / DATE: 7/ 1/2024 / Origin: Program Fullerene / C70 from database
 C            1.49923098       -0.39694765        5.46483059
 C            0.63099351       -1.52191373        5.18704829
 C            1.22890777       -2.27736479        4.10078046
 C            2.61322792       -0.45839595        4.53110739
 C            2.34007894       -1.51576896        3.57442600
 C            2.81192473        0.87965884        4.03320168
 C            0.75653030        0.81351061        5.15913402
 C            1.66247910        1.68008791        4.44576144
 C           -0.63065657       -0.99673332        4.69021501
 C           -0.48589952        0.42977932        4.50737926
 C            0.16331000       -2.60086592        3.18592620
 C           -0.98528424       -1.78230453        3.53311592
 C            0.45614374       -2.68974773        1.83512857
 C            2.35640023       -1.24325624        2.20130646
 C            1.60272088       -2.06002826        1.34197527
 C            2.96296287        1.06883358        2.60408057
 C            2.82404319       -0.00709706        1.73024243
 C            1.17512273        2.34560881        3.25785628
 C            2.24492724        2.28000716        2.28761372
 C           -0.81268028        0.97622186        3.26121323
 C           -0.11942415        2.10237948        2.79706311
 C           -1.64315016       -1.16432532        2.47579281
 C           -1.59862757        0.23026891        2.36289902
 C           -0.63424957       -2.72471812        0.99285128
 C           -1.71126412       -1.89151721        1.29938458
 C           -0.40127522       -3.01083414       -0.33506025
 C            1.69769024       -1.86218025       -0.04510074
 C            0.77357203       -2.49792078       -0.89586863
 C            2.65898148        0.29199192        0.37921982
 C            2.39454022       -0.74539168       -0.50622549
 C            1.88756671        2.49105184        0.97099253
 C            2.35790483        1.60945146        0.00098404
 C           -0.41997323        2.58871030        1.52761780
 C            0.64489952        3.05733680        0.75251839
 C           -1.99103504        0.81967953        1.14975946
 C           -1.56223429        2.11871531        0.88200552
 C           -2.45586932       -1.37451783        0.25018342
 C           -2.47812562        0.01468417        0.09994851
 C           -1.53064926       -3.13521784       -1.12210411
 C           -2.60099107       -2.19167745       -0.86477993
 C           -1.37452953       -3.26811438       -2.54682076
 C            0.85715782       -2.30387307       -2.28457801
 C           -0.12390309       -2.83435645       -3.12511787
 C            2.43114607       -0.47068390       -1.86432261
 C            1.71241326       -1.32738280       -2.78572384
 C            2.03722856        1.88523952       -1.33358686
 C            2.24860254        0.90436057       -2.29650158
 C            0.38996214        3.52037612       -0.52385549
 C            1.15914506        2.93662055       -1.61288126
 C           -1.95047519        2.73990054       -0.29849983
 C           -0.98864891        3.60727783       -0.95045327
 C           -2.73043155        0.58032770       -1.16155870
 C           -2.59797145        1.95590745       -1.33323144
 C           -2.97182476       -1.61267754       -2.13514885
 C           -2.43617680       -2.49480757       -3.16322171
 C           -2.88861125       -0.23442626       -2.29083506
 C           -0.45473789       -2.14809391       -4.36484593
 C           -1.89425238       -1.91954556       -4.37563725
 C            1.29366438       -0.50212251       -3.91023306
 C            1.43832545        0.88949214       -3.50649660
 C            0.20023514       -0.88941456       -4.67133324
 C            0.29068653        2.87023772       -2.77837090
 C           -1.02518599        3.33692857       -2.37261874
 C           -2.16311864        2.47876391       -2.62221022
 C            0.37163794        1.78014856       -3.63889175
 C           -2.69702915        0.30418609       -3.56583163
 C           -2.11570615       -0.51154304       -4.62017987
 C           -0.83439159        0.08535279       -4.96243229
 C           -2.08294762        1.60703265       -3.69312121
 C           -0.78303290        1.38563577       -4.31588412
