   70
C70 / DATE: 7/ 1/2024 / Origin: Program Fullerene / C70 from database
 C            1.71148601        0.11161410        4.72396738
 C            0.88164498       -1.08005475        4.68127432
 C            1.41785602       -1.95269236        3.65525870
 C            2.61864267        0.06073200        3.58967754
 C            2.50937984       -1.24902795        2.99523897
 C            2.35801042        1.20544430        2.74747689
 C            0.84379663        1.25828258        4.53982551
 C            1.30922461        1.98923296        3.37357203
 C           -0.50324336       -0.66436999        4.58386981
 C           -0.53018991        0.79174739        4.55862348
 C           -1.35591427       -1.38662297        3.75733834
 C            0.54961283       -2.70614996        2.86671230
 C           -0.82890241       -2.48123545        2.95040884
 C            1.06834317       -3.24807303        1.69493375
 C            2.62109922       -1.37628186        1.61639513
 C            2.21294369       -2.58930973        1.08617923
 C            2.30937257        1.02964577        1.36829692
 C            2.55250899       -0.23181690        0.80587360
 C            1.66202467        1.99933480        0.60234346
 C            0.37142063        2.59518516        2.54725446
 C            0.71050648        2.82503281        1.21441511
 C           -1.44936526        1.44951109        3.75253411
 C           -0.98142060        2.52220714        2.88972172
 C           -2.36078878       -0.69438641        2.96363651
 C           -2.42956506        0.68824132        2.98995317
 C           -1.65405203       -2.57126073        1.75159790
 C           -2.48335764       -1.38393864        1.69110463
 C            0.17180241       -3.60988597        0.61374237
 C           -1.10050000       -3.04855740        0.57407555
 C            2.09839612       -2.74043267       -0.34774687
 C            0.97530264       -3.62510694       -0.59711971
 C            2.45299171       -0.36928375       -0.58314242
 C            2.26744980       -1.63101119       -1.16524869
 C            1.74148013        1.92451171       -0.79128502
 C            2.29348528        0.77333065       -1.36539927
 C            1.04291119        2.85198535       -1.57798484
 C           -0.20136287        3.51269524        0.42666124
 C           -0.02360492        3.53878333       -1.01066005
 C           -1.98336515        2.67971290        1.85083115
 C           -2.67816615        1.40816925        1.75096292
 C           -1.61752813        3.31113434        0.67786803
 C           -2.53581048       -0.66053233        0.50010855
 C           -2.68107091        0.72994650        0.52811033
 C           -1.58335148       -2.56755684       -0.64236195
 C           -2.17454905       -1.29442901       -0.69019398
 C            0.32751250       -3.52019139       -1.81541369
 C           -1.07220771       -3.13760179       -1.80292017
 C            1.85757688       -1.72568634       -2.49849916
 C            0.94981391       -2.72482763       -2.85753356
 C            2.37660503        0.64650442       -2.74556755
 C            2.03683653       -0.63116053       -3.34071510
 C            1.05594046        2.73875083       -2.96574786
 C            1.83145745        1.68782790       -3.58731454
 C           -0.21429879        2.82090811       -3.66793465
 C           -1.34435491        3.38688807       -1.60294051
 C           -2.16934075        2.81212235       -0.56331014
 C           -2.52516387        1.46637786       -0.65077368
 C           -1.42828529        2.84994070       -2.87396167
 C           -2.24833226       -0.58532984       -1.89447929
 C           -2.37110928        0.80551155       -1.87230455
 C           -2.06253554        1.54934371       -3.01839965
 C           -1.36454169       -2.53223841       -3.08420273
 C           -0.10489545       -2.41809026       -3.80475896
 C           -1.98917174       -1.22976294       -3.10199387
 C            1.07980806       -0.37851142       -4.41101817
 C            1.00182438        1.05626105       -4.60327012
 C           -0.30310012        1.68765362       -4.56856351
 C           -1.45717953        0.89689599       -4.16970700
 C           -0.08892015       -1.12863900       -4.46409215
 C           -1.36952234       -0.48741047       -4.18327890
