   70
C70 / DATE: 7/ 1/2024 / Origin: Program Fullerene / C70 from database
 C            1.11345428       -0.06825311        4.88748884
 C            2.33191954       -0.33692312        4.14763030
 C            2.19655961       -1.65307414        3.54692522
 C            0.25066593       -1.23190584        4.74980262
 C            0.82903990       -2.09036993        3.73122144
 C           -1.10212356       -0.75706169        4.56610752
 C            0.32640815        1.10627829        4.55423849
 C           -1.06289131        0.69436238        4.47344291
 C            0.80850622        2.02041467        3.62487040
 C            2.74681378        0.58396611        3.10189558
 C            2.07388387        1.78307424        2.93617285
 C            2.70484407       -1.57122369        2.19759146
 C            3.08790015       -0.19883869        1.92719511
 C            2.04547594       -2.24815143        1.18996792
 C            0.07985322       -2.43492620        2.60283173
 C            0.74866127       -2.73414094        1.40511186
 C           -1.85021538       -1.24027079        3.42585863
 C           -1.30425372       -2.21126561        2.59056485
 C           -1.85470430        1.08724871        3.31574233
 C           -2.51092765       -0.10115207        2.81188955
 C           -0.10756260        2.60235321        2.65756055
 C           -1.33579628        1.99456408        2.40295459
 C            1.95900333        2.34569011        1.60228143
 C            0.69516253        3.05365595        1.53729565
 C            2.84749841        0.30806578        0.64524415
 C            2.36908335        1.61443042        0.48510188
 C            2.41694505       -1.94027760       -0.10467208
 C            2.70132493       -0.60176457       -0.40741562
 C            1.97701592       -2.79713444       -1.09421673
 C            0.02763313       -3.23737777        0.31292551
 C            0.67609186       -3.40890138       -0.91196293
 C           -2.01909274       -2.49265381        1.43472703
 C           -1.35668832       -3.13090398        0.31487201
 C           -2.82521267       -0.18355841        1.45899900
 C           -2.88616441       -1.45368286        0.89966546
 C           -1.82709704        1.99976160        1.09857950
 C           -2.56228700        0.90508839        0.62134985
 C            0.09514916        3.17508155        0.29776971
 C           -1.26355812        2.88791350        0.18598184
 C            1.90168113        2.02169963       -0.76988093
 C            0.89736584        2.99719524       -0.82112698
 C            2.50630926       -0.11832521       -1.70344355
 C            2.14701746        1.21726723       -1.88680385
 C            2.11117074       -2.40492865       -2.47731282
 C            2.38606703       -1.01511757       -2.76529931
 C           -0.06676891       -3.21166890       -2.14962944
 C            0.87837244       -2.76271879       -3.15866505
 C           -2.04336765       -2.70566065       -0.89621872
 C           -2.91699607       -1.59774753       -0.54005384
 C           -1.34415053       -2.65780346       -2.09874500
 C           -2.82074076        0.79783529       -0.75174094
 C           -2.92971416       -0.46658363       -1.34401598
 C           -1.86512016        3.02965689       -1.05799768
 C           -2.67151175        1.92920403       -1.55386524
 C            0.38691391        3.41198570       -2.04324443
 C           -1.05509786        3.52010054       -2.16166831
 C            1.74928679        1.65132684       -3.15123804
 C            0.88913407        2.81180794       -3.26005073
 C            1.57576523       -0.65782475       -3.91485459
 C            0.51890702       -1.65459140       -4.02164186
 C            1.27847678        0.67963617       -4.12226465
 C           -1.74992698       -1.74222183       -3.07302467
 C           -2.61363750       -0.63656629       -2.68832489
 C           -0.80648828       -1.24470366       -4.06643097
 C           -2.40021750        1.78219837       -2.97592712
 C           -1.45938180        2.81741397       -3.36515979
 C           -0.25472705        2.44495617       -4.08338189
 C           -0.07503178        1.06331483       -4.49033511
 C           -2.27867274        0.50857244       -3.51240722
 C           -1.11523474        0.15415412       -4.31883677
