   70
C70 / DATE: 7/ 1/2024 / Origin: Program Fullerene / C70 from database
 C            0.96588329       -0.11458126        5.11227336
 C            2.24702950       -0.32659110        4.46294526
 C            2.22706439       -1.66278945        3.89811865
 C            0.14371906       -1.29208186        4.86420725
 C            0.84868930       -2.11603283        3.90722046
 C           -1.18765240       -0.84390817        4.53547919
 C            0.17642122        1.05058741        4.75840268
 C           -1.19667811        0.60854560        4.62222935
 C            0.67912541        1.97968643        3.85256532
 C            2.67032527        0.58202919        3.41206821
 C            1.95167594        1.74482476        3.17710397
 C            2.91490196       -1.61766406        2.62339063
 C            3.11519183       -0.21759920        2.28064222
 C            2.46603858       -2.46571862        1.62728303
 C            0.25593391       -2.45403350        2.68807660
 C            1.09436517       -2.95734739        1.70202921
 C           -1.74619293       -1.20424689        3.24466046
 C           -0.97237444       -1.88665118        2.31003208
 C           -1.98446481        1.09790563        3.50838871
 C           -2.50907759       -0.06150629        2.80001924
 C           -0.21659211        2.62029137        2.89743318
 C           -1.53801548        2.18685164        2.76106479
 C            1.82752385        2.23240965        1.81615570
 C            0.56374705        2.93183068        1.70569053
 C            2.84893941        0.20530375        0.97388253
 C            2.24551948        1.44675800        0.74952407
 C            2.68728606       -2.08102163        0.25082543
 C            2.87444986       -0.73700128       -0.06228028
 C            0.60627823       -3.08688463        0.34438793
 C            1.73464886       -2.83636062       -0.53011015
 C           -1.32075853       -1.79047374        0.95266634
 C           -0.62505427       -2.54045428       -0.00088821
 C           -2.78641178        0.07852770        1.44906843
 C           -2.30397525       -0.87435109        0.54305047
 C           -2.19409752        2.43796784        1.56161833
 C           -2.99613963        1.36919209        0.99429743
 C           -0.07371833        2.97519044        0.47097527
 C           -1.45723033        3.03030422        0.45731627
 C            1.75880360        1.73908659       -0.51897579
 C            0.58580462        2.49216804       -0.66217164
 C            2.59538857       -0.33140891       -1.37117759
 C            2.22818103        0.99669317       -1.59312591
 C            1.45897949       -2.38972897       -1.80457638
 C            2.18885565       -1.30901914       -2.28647957
 C           -0.88777637       -2.34972761       -1.36000669
 C            0.16195819       -2.54641280       -2.26690303
 C           -2.57156140       -0.70839310       -0.82447155
 C           -2.00063429       -1.59956517       -1.74227156
 C           -3.07711241        1.59653807       -0.42457513
 C           -2.16045137        2.67383160       -0.75869853
 C           -3.11405477        0.50754160       -1.27702801
 C           -0.05902266        2.53347265       -1.90562477
 C           -1.45914042        2.56713327       -1.95571386
 C            1.88610660        1.40734720       -2.87490692
 C            0.66719207        2.17931715       -3.04332072
 C            2.01338903       -0.95913868       -3.62149358
 C            1.96618540        0.44878610       -3.96006267
 C           -0.04798138       -2.36819430       -3.62663323
 C            0.95901673       -1.62874736       -4.37143708
 C           -2.31525767       -1.49121788       -3.09761320
 C           -1.34936358       -1.93608768       -4.08507962
 C           -3.02394509        0.82185878       -2.62365532
 C           -2.11953833        1.90118504       -2.98855870
 C           -2.86240920       -0.24404762       -3.57903636
 C           -0.02112886        1.67161632       -4.22049807
 C            0.82923720        0.66583661       -4.83891104
 C            0.27782972       -0.63401228       -5.18076682
 C           -1.14907333       -0.85662982       -5.04320108
 C           -1.39751181        1.49231471       -4.17620814
 C           -1.99728910        0.24669712       -4.63863136
