   70
C70 / DATE: 7/ 1/2024 / Origin: Program Fullerene / C70 from database
 C            1.65915880        0.09187640        4.37529130
 C            0.84233949       -1.09722486        4.22426697
 C            1.53469925       -1.98501109        3.31931993
 C            2.67584245        0.06407678        3.33511320
 C            2.60718924       -1.22220127        2.69369207
 C            2.50769566        1.23892339        2.51332073
 C            0.81134165        1.23823682        4.12204203
 C            1.47229288        2.05246553        3.12577729
 C           -0.49886028       -0.68799793        3.86555544
 C           -0.52400815        0.76468791        3.81568980
 C           -1.15407533       -1.39928176        2.87031315
 C            0.78173841       -2.81708255        2.50009446
 C           -0.60007900       -2.60193039        2.40615243
 C            1.44651516       -3.36059046        1.40748917
 C            2.74353705       -1.30524933        1.31251796
 C            2.46748952       -2.54858525        0.76520595
 C            2.51242649        1.11852455        1.12039143
 C            2.56532049       -0.15237108        0.52135412
 C            2.01610198        2.19670177        0.38602895
 C            0.68058402        2.79310118        2.26948798
 C            1.24594396        3.15561840        1.05832730
 C           -1.20598076        1.39725284        2.78006814
 C           -0.70503861        2.61199020        2.30913649
 C           -2.11990660       -0.74082176        2.10797722
 C           -2.04255356        0.64570403        1.94794347
 C           -2.89696985       -1.47454758        1.21745611
 C           -1.35088864       -3.39884823        1.54416225
 C           -2.60474526       -2.88133471        1.03063219
 C            0.70008647       -4.05159498        0.37303130
 C           -0.68529746       -4.10080346        0.45750590
 C            2.30883362       -2.68434319       -0.65923343
 C            1.33933221       -3.74676763       -0.89579625
 C            2.31459496       -0.27742252       -0.85939033
 C            2.28988845       -1.54770272       -1.45535268
 C            1.98281974        2.12282345       -1.00672715
 C            2.05108438        0.86845743       -1.63458377
 C            1.60052973        3.25233522       -1.73460076
 C            0.61083894        4.16357806        0.35175704
 C            0.87506264        4.30972985       -1.06053307
 C           -1.47833507        3.32717579        1.40146676
 C           -0.81682876        4.30892624        0.55587505
 C           -2.54549428        1.22046516        0.77614479
 C           -2.40297482        2.58364269        0.56366176
 C           -3.18433851       -0.90244312       -0.08632070
 C           -2.80048428        0.40560974       -0.32075008
 C           -2.66272503       -3.16241938       -0.39416029
 C           -1.49139378       -3.94338811       -0.74557835
 C           -2.90577444       -1.90786020       -1.08984702
 C            0.58131016       -3.71778094       -2.05672660
 C           -0.87205948       -3.69173989       -1.96305996
 C            1.85600068       -1.68655847       -2.76538729
 C            0.96617897       -2.78773547       -3.10168378
 C            1.62373484        0.73582940       -2.96944350
 C            1.36797286       -0.52952974       -3.46932344
 C            0.95333996        3.07563013       -3.01158246
 C            0.82742959        1.73378439       -3.51142700
 C           -0.40799481        4.47046832       -1.73388319
 C           -1.44897680        4.26839924       -0.74856540
 C           -2.24781657        3.05465672       -0.80263490
 C           -0.39286420        3.61063171       -2.89492906
 C           -2.29969401        0.76976260       -1.57283723
 C           -0.58984525        1.44107265       -3.65856667
 C           -2.04312124        2.12190786       -1.82434160
 C           -1.30201115        2.47582640       -2.94760017
 C           -2.11655591       -1.57429472       -2.18684246
 C           -1.33979351       -2.57673905       -2.77282148
 C           -0.25131033       -2.21168541       -3.64775337
 C           -0.00155978       -0.81072003       -3.86709074
 C           -1.85935153       -0.22077179       -2.47043690
 C           -0.96954767        0.11550620       -3.50443908
