   70
C70 / DATE: 7/ 1/2024 / Origin: Program Fullerene / C70 from database
 C            1.31440794        0.04445805        4.68336718
 C            2.50087572       -0.05061755        3.85941169
 C            2.51700602       -1.37646982        3.26674652
 C            0.48838591       -1.12007013        4.40480594
 C            1.22006544       -1.98100722        3.48682034
 C           -0.82678516       -0.64722593        4.00533983
 C            0.47703010        1.21705772        4.55154116
 C           -0.88107866        0.77102185        4.27209599
 C            0.80407661        2.21153796        3.54554105
 C            2.70139624        0.91048330        2.78519290
 C            1.80026146        1.95729076        2.59636602
 C            2.97828578       -1.24003276        1.90177926
 C            3.16761925        0.17222603        1.62624295
 C            2.38882569       -2.01061076        0.91289886
 C            0.54323342       -2.50911553        2.39082421
 C            1.24478158       -2.76361098        1.20752936
 C           -1.36063985       -1.13507043        2.82073704
 C           -0.83210235       -2.31597497        2.31630034
 C           -2.07098965       -0.29015022        1.95538431
 C           -1.42073371        1.64691180        3.25073958
 C           -0.47103167        2.73453656        3.09682390
 C           -2.00193969        1.09792311        2.10631292
 C           -0.50052050        3.45429096        1.91987045
 C            1.69108231        2.53712845        1.32921834
 C            0.71058108        3.50862106        1.12372824
 C            2.84897174        0.64470870        0.35678207
 C            2.29916091        1.91956037        0.22806185
 C            2.61199801       -1.63496123       -0.40205584
 C            2.72564083       -0.26847545       -0.69892866
 C            2.25925615       -2.54255567       -1.38529673
 C            0.57655146       -3.41836914        0.16360230
 C            1.15721584       -3.44373942       -1.10862491
 C           -1.53458216       -2.96421702        1.32017805
 C           -0.78666958       -3.67969409        0.30405043
 C           -2.59431886       -0.83149308        0.77686620
 C           -2.57532587       -2.21919899        0.64013713
 C           -2.75652468       -0.01259453       -0.35356037
 C           -2.16765754        1.91670007        0.98946318
 C           -1.56885360        3.17866020        0.98312435
 C           -2.63691954        1.37901410       -0.21121985
 C            0.30339721        3.85825693       -0.22777546
 C           -1.15012940        3.76028735       -0.27679267
 C            2.11992125        2.44090725       -1.04828291
 C            1.05989833        3.40255445       -1.29633797
 C            2.49725882        0.20593659       -1.99940930
 C            2.18887700        1.54785600       -2.19060371
 C            2.15371934       -2.09981900       -2.75501305
 C            2.15918692       -0.67876962       -3.01763538
 C            0.32036655       -3.49449268       -2.30272718
 C            0.93282465       -2.65643528       -3.31349838
 C           -1.63654013       -3.74403675       -0.87081788
 C           -2.73909607       -2.81638343       -0.66418195
 C           -1.05812092       -3.47438354       -2.17152260
 C           -2.97456807       -0.58163743       -1.62554404
 C           -2.80640591       -1.94581220       -1.80920770
 C           -1.82301728       -2.39487710       -2.78338721
 C           -2.81438374        0.19613527       -2.76236539
 C           -2.69770134        2.21123122       -1.33043010
 C           -1.77053484        3.32242230       -1.43370162
 C           -2.80019675        1.63227541       -2.64826239
 C            0.40282838        3.03935220       -2.54257408
 C            1.11110741        1.89753180       -3.10505267
 C           -0.98079751        3.11005966       -2.63577961
 C           -1.68323850        2.12955331       -3.43922626
 C            1.00923796       -0.37726116       -3.85576010
 C            0.16449302       -1.56292304       -3.88239597
 C           -1.19434810       -1.44216519       -3.59221166
 C           -1.79303896       -0.19043742       -3.72232539
 C            0.41796419        0.87930147       -3.76438443
 C           -0.95899995        0.97889650       -3.95099054
