   70
C70 / DATE: 7/ 1/2024 / Origin: Program Fullerene / C70 from database
 C            1.68978198       -0.13347758        4.90916542
 C            0.84845471       -1.31692522        4.91393278
 C            1.35970620       -2.23826566        3.91055631
 C            2.62245723       -0.26144101        3.80649772
 C            2.42819517       -1.56363211        3.19275589
 C            2.48767301        0.91326596        2.96073067
 C            0.84261422        1.01217181        4.63206649
 C            1.33521925        1.66143002        3.42514753
 C           -0.53629874       -0.88246322        4.83147076
 C           -0.53751789        0.56615250        4.66789399
 C           -1.44079423       -1.66340571        4.11779311
 C            0.46115186       -3.02279864        3.20196165
 C           -0.96313327       -2.86456634        3.45065155
 C            0.64311487       -3.19854599        1.76998497
 C            2.48136511       -1.63033973        1.80415549
 C            1.66534763       -2.52905376        1.10546067
 C            2.64842969        0.74614388        1.59349620
 C            2.98297336       -0.52165649        1.12570273
 C            1.99204244        1.62060778        0.72574749
 C            0.41820057        2.12765798        2.48454397
 C            0.79896480        2.21644747        1.13941940
 C           -1.43526302        1.15864392        3.79248049
 C           -0.93674531        2.10340939        2.80263813
 C           -2.41569599       -1.03026927        3.24242144
 C           -2.46045267        0.35281743        3.14665642
 C           -1.65466536       -2.97754143        2.17792703
 C           -0.66597406       -3.22901019        1.14777332
 C           -2.51926917       -1.82440457        2.02788539
 C           -0.81336455       -2.60404957       -0.08414426
 C            1.57671468       -2.40207391       -0.28373072
 C            0.31335802       -2.44428917       -0.88971844
 C            3.26205659       -0.65761360       -0.22040200
 C            2.61186197       -1.74112919       -0.92828910
 C            2.28849764        1.54086776       -0.63555181
 C            3.12886896        0.51400869       -1.05994092
 C            1.47179344        2.18354959       -1.57129528
 C           -0.13894119        2.61003592        0.17954968
 C            0.25354711        2.73733511       -1.15968828
 C           -1.90854221        2.14109419        1.73453099
 C           -2.74297006        0.96261406        1.85879794
 C           -1.50304254        2.48448211        0.45921669
 C           -2.55974187       -1.18403065        0.79212534
 C           -1.91268069       -1.77136458       -0.30016108
 C           -2.91017425        0.16611902        0.72718151
 C           -2.06678174       -1.19530020       -1.55695345
 C            0.13341119       -1.94798907       -2.18597649
 C           -1.14607610       -1.51747986       -2.55424467
 C            2.44378432       -1.31617508       -2.30212133
 C            3.01571691        0.01820146       -2.41295027
 C            1.24738063       -1.58206636       -2.95416516
 C            1.75189758        2.02792564       -2.93484450
 C            2.50688118        0.86493112       -3.37965038
 C            0.72428805        2.28696799       -3.93005101
 C           -0.73248073        3.03625046       -2.10753601
 C           -0.50533108        2.77992011       -3.51987433
 C           -2.33575470        2.09111540       -0.57348855
 C           -2.86474085        0.79751710       -0.51595702
 C           -2.78408596       -0.00361089       -1.65164379
 C           -2.10353405        2.66566115       -1.80954561
 C           -1.73627607        2.23487505       -4.07971574
 C           -2.93590836        0.60284175       -2.89467834
 C           -2.65917189        2.02215060       -2.98159036
 C           -1.39466747       -1.09972677       -3.85595085
 C           -2.34994397       -0.02934418       -4.06296157
 C           -1.69623516        1.00555276       -4.85055496
 C            1.06319094       -0.98640236       -4.20012062
 C            1.76420793        0.25890111       -4.46819122
 C            0.78947931        1.22696804       -4.92805817
 C           -0.27467758       -0.85749023       -4.73843476
 C           -0.41169574        0.48929822       -5.27613809
