   70
C70 / DATE: 7/ 1/2024 / Origin: Program Fullerene / C70 from database
 C            1.04983602       -0.02747616        4.70212228
 C            2.33107920       -0.37260065        4.12775634
 C            2.26399750       -1.75957211        3.69792399
 C            0.21263968       -1.21770146        4.65167936
 C            0.87472805       -2.17265677        3.78870124
 C           -1.12395929       -0.79431359        4.31431567
 C            0.29178067        1.05754104        4.10685248
 C           -1.09561743        0.65121552        4.15149284
 C            0.76769102        1.68933820        2.95530075
 C            2.81230417        0.40183733        3.00484114
 C            2.10416325        1.51817453        2.56660007
 C            2.93569625       -1.86381439        2.41223073
 C            3.32297826       -0.52344396        2.00636790
 C            2.40100922       -2.71415737        1.46215336
 C            0.24421247       -2.64510002        2.63590713
 C            1.05044696       -3.21992047        1.65948186
 C           -1.75203653       -1.34528680        3.12943025
 C           -1.05380293       -2.22315167        2.29684355
 C           -1.93549387        0.97046202        3.01963207
 C           -2.50158272       -0.26488393        2.51950300
 C           -0.14755673        2.28263795        2.07067225
 C           -1.49308131        1.88775416        2.08337351
 C            0.32131688        3.06606559        1.00761714
 C            2.53386856        2.08445485        1.37490155
 C            1.65698422        2.97520580        0.64288195
 C            3.25512280       -0.14166083        0.66511366
 C            3.19463842        1.22157172        0.40753969
 C            2.52136907       -2.36044046        0.06073697
 C            2.77588305       -1.04076794       -0.29912211
 C            0.50300686       -3.50082208        0.35289532
 C            1.48641550       -3.09106844       -0.63800632
 C           -1.53300489       -2.40711642        0.99065723
 C           -0.83279771       -3.23425599        0.09999009
 C           -2.77895992       -0.35031453        1.16227898
 C           -2.55212211       -1.56125283        0.52227009
 C           -2.22079899        1.98238756        0.90782635
 C           -2.81612219        0.82003432        0.39433582
 C           -0.58449549        3.56127893        0.06972729
 C           -1.94191706        3.05358958        0.07958866
 C           -0.17614513        3.68010676       -1.32423301
 C            2.00548778        2.86538703       -0.76555071
 C            2.84216850        1.68515085       -0.91366636
 C            1.03796727        3.12858292       -1.73161797
 C            2.30909993       -0.57282712       -1.53784822
 C            2.52480045        0.76625323       -1.89945169
 C            1.02472646       -2.61244206       -1.85460638
 C            1.56061456       -1.42928556       -2.36903097
 C           -1.23434793       -3.31336239       -1.22895928
 C           -0.24874521       -3.01458666       -2.25634009
 C           -3.06454808       -1.71675076       -0.75576049
 C           -2.48412292       -2.70991936       -1.62751923
 C           -3.16677139        0.73133742       -0.96270633
 C           -3.32797660       -0.52478671       -1.54413478
 C           -2.43724132        3.05050421       -1.27646261
 C           -1.36215235        3.50122676       -2.14385205
 C           -2.95908115        1.81399017       -1.81249009
 C           -1.30102354        2.60656434       -3.28164651
 C           -2.32500348        1.58440892       -3.10173622
 C            1.12926913        2.46837978       -2.96137972
 C            1.95924950        1.27679131       -3.05959098
 C           -0.05860802        2.24738483       -3.77647713
 C            1.09903406       -0.98352517       -3.60511229
 C            1.35096470        0.37993968       -4.01167287
 C            0.08473609        0.96242289       -4.43134636
 C           -0.92345000       -2.32523543       -3.34406374
 C           -2.29877430       -2.10898011       -2.93860955
 C           -2.80615248       -0.75014233       -2.88464350
 C           -2.09754535        0.27082538       -3.51494144
 C           -0.25869203       -1.30591926       -4.00681260
 C           -0.94555612       -0.04326381       -4.24215095
