   70
C70 / DATE: 7/ 1/2024 / Origin: Program Fullerene / C70 from database
 C            0.99412581       -0.13060881        4.93346764
 C            2.29717443       -0.34590848        4.33560827
 C            2.24628349       -1.61826507        3.63132468
 C            0.17506537       -1.28967918        4.61266915
 C            0.86434730       -2.03496551        3.57662486
 C           -1.16224340       -0.81730090        4.34642971
 C            0.23434442        1.05476027        4.57442717
 C           -1.13925765        0.63932981        4.37608266
 C            0.78409354        1.99655299        3.71162968
 C            2.82979054        0.64444951        3.41522140
 C            2.13294927        1.82063162        3.18590912
 C            2.94673741       -1.45325653        2.38122978
 C            3.39262530       -0.07108538        2.28590540
 C            2.43606165       -2.04529948        1.23504847
 C            0.26782035       -2.20171319        2.32388493
 C            1.07725264       -2.40035996        1.19251910
 C           -1.79711610       -1.20519840        3.10423470
 C           -1.10213893       -1.95683059        2.15950929
 C           -1.86108615        1.10613907        3.20328475
 C           -2.52942612       -0.05048122        2.63784521
 C           -0.03491221        2.57766099        2.65402546
 C           -1.26792151        2.02050086        2.33113342
 C            2.16695101        2.41034222        1.86136866
 C            0.85684377        2.98390241        1.58842635
 C            3.43069721        0.51915567        1.02045518
 C            2.85696743        1.78527924        0.82270616
 C            3.07007518       -1.69727542        0.05553878
 C            3.58662744       -0.34462151       -0.06465036
 C            2.47456703       -2.06434998       -1.20395595
 C            0.47092498       -2.69439127       -0.03943768
 C            1.24372722       -2.69841809       -1.21285288
 C           -1.64427369       -2.02808132        0.87983675
 C           -0.92756065       -2.67388521       -0.11689331
 C           -2.86481420       -0.00290175        1.29814417
 C           -2.66979275       -1.14308432        0.52331618
 C           -1.72154556        2.06408775        1.00866422
 C           -2.77974129        1.22430080        0.66226749
 C            0.40003914        2.99822603        0.27696035
 C           -0.90703582        2.59227369       -0.00705088
 C            2.60360605        2.24190931       -0.47037702
 C            1.35380486        2.94125057       -0.72826960
 C            3.32985596        0.11073410       -1.41842487
 C            2.70195050       -0.97983714       -2.14494991
 C            2.88489333        1.39957455       -1.62024298
 C            1.72503697       -0.72433682       -3.10711075
 C            0.62307594       -2.81515075       -2.44998676
 C            0.87880511       -1.78239035       -3.44448484
 C           -1.57253174       -2.93235219       -1.31926246
 C           -0.77890201       -3.15162854       -2.50531217
 C           -3.13588772       -1.11863242       -0.79383161
 C           -2.70802009       -2.10252555       -1.68573953
 C           -3.32721754        1.31620019       -0.60399096
 C           -3.67198546        0.07609419       -1.27874462
 C           -1.34235125        2.52777935       -1.33951284
 C           -2.66470525        2.15312875       -1.57975304
 C            0.94430093        2.64084841       -2.08224220
 C            1.85977815        1.64530048       -2.61729372
 C            1.33935742        0.59736390       -3.37846700
 C           -0.40435781        2.52517602       -2.38608200
 C            0.15938704        0.85045458       -4.07822469
 C           -0.70890818        1.91522144       -3.60155498
 C           -0.35525272       -1.54081194       -4.16773176
 C           -1.37742068       -2.40502176       -3.59876047
 C           -2.61337535       -1.81698150       -3.11355745
 C           -0.68702990       -0.24351760       -4.52199888
 C           -3.66592937        0.35242409       -2.70278134
 C           -3.07010441        1.66861922       -2.88752251
 C           -2.07338890        1.56278690       -3.92479101
 C           -3.00154279       -0.57395785       -3.59710475
 C           -2.07216697        0.19264701       -4.41275134
