   70
C70 / DATE: 7/ 1/2024 / Origin: Program Fullerene / C70 from database
 C            1.52148394        0.14448251        4.85559285
 C            0.75844596       -1.06990953        4.64870691
 C            1.64345671       -2.01522189        4.00631484
 C            2.69701765        0.07342706        3.99946740
 C            2.79811046       -1.27954494        3.50885724
 C            2.60200726        1.15164929        3.03623868
 C            0.71076042        1.25121662        4.38903125
 C            1.51403935        2.01298587        3.45743739
 C           -0.48302705       -0.71800679        3.97206656
 C           -0.55277679        0.72993105        3.90173482
 C           -0.89274971       -1.46535720        2.87014590
 C            1.11806372       -2.77273547        2.89522116
 C           -0.22937582       -2.66436375        2.57522867
 C            2.86399690       -1.49737960        2.07450575
 C            2.06801311       -2.67406694        1.80208152
 C            2.74289590        0.89781853        1.66790700
 C            2.76913792       -0.42372534        1.19525642
 C            2.36135732        1.91639462        0.78781468
 C            0.85076305        2.69987697        2.45848300
 C            1.55688691        2.94725335        1.29090734
 C           -1.08802197        1.32793668        2.76602270
 C           -0.53101397        2.53607559        2.35030579
 C           -1.68254035       -0.85085021        1.88693029
 C           -1.76997690        0.54572138        1.82691465
 C           -2.21937690       -1.62648540        0.85725146
 C           -0.62405376       -3.36721854        1.45166446
 C           -1.81884350       -2.95359304        0.75466786
 C            1.56968387       -2.87372333        0.51882480
 C            0.38550517       -3.59348975        0.42891929
 C            2.39672475       -0.68245060       -0.12271753
 C            1.83272042       -1.92162848       -0.47175449
 C            2.40035214        1.67535076       -0.58883137
 C            2.42775263        0.35740842       -1.04694073
 C            2.08492803        2.70474056       -1.47362125
 C            1.02625437        3.89844416        0.43253974
 C            1.38679792        3.86905549       -0.96819393
 C           -1.18938074        3.25101357        1.36077935
 C           -0.40110301        4.14212286        0.52126495
 C           -2.29760165        1.15983467        0.68389627
 C           -2.11280249        2.53361360        0.49883387
 C           -2.79533639       -1.00875364       -0.25610321
 C           -2.67652356        0.37673899       -0.41239319
 C           -3.20148145       -1.79970434       -1.33535967
 C           -1.72644861       -3.56028517       -0.55600367
 C           -0.30242127       -3.66797132       -0.84131987
 C           -2.55462155       -3.08448970       -1.55334622
 C            1.28019075       -2.09516346       -1.74871102
 C            0.21788604       -2.99048674       -1.93979559
 C            2.20497416        0.08057467       -2.39224317
 C            1.61636447       -1.19646331       -2.75701762
 C            1.48384229        2.38479963       -2.75504762
 C            1.61523885        1.09846748       -3.24730914
 C            0.16483751        4.02216573       -1.74519613
 C           -0.94468627        4.09297331       -0.82173585
 C           -1.93494264        3.03748885       -0.85161779
 C            0.16053249        2.97660333       -2.74774080
 C           -2.65871387        0.94899167       -1.69410028
 C           -1.93969856        2.11802262       -1.88902887
 C           -0.94122425        2.13289050       -2.87604528
 C           -3.37696088       -1.18284979       -2.63401819
 C           -2.90946990        0.17129381       -2.81138226
 C           -2.02611767       -3.06933631       -2.90335995
 C           -0.59349531       -2.88393555       -3.07036598
 C           -2.70745649       -2.01209057       -3.62197411
 C            0.68605969       -0.95100980       -3.84651615
 C            0.47393173        0.48684020       -3.90845855
 C           -0.80598040        1.01181165       -3.69864006
 C           -1.91011093        0.17898962       -3.86356507
 C           -0.39784402       -1.79536558       -4.01255576
 C           -1.69483525       -1.19734959       -4.26880447
