   70
C70 / DATE: 7/ 1/2024 / Origin: Program Fullerene / C70 from database
 C            1.13488949        0.02004654        5.32594024
 C            0.45074904       -1.15736442        4.82251401
 C            1.44048426       -2.00995865        4.20772688
 C            2.49016761        0.00222407        4.79670977
 C            2.67245538       -1.24480668        4.08470091
 C            2.69736795        1.24124570        4.08061935
 C            0.46324342        1.18915110        4.78276006
 C            1.46841070        2.02034360        4.17007997
 C           -0.66538929       -0.71461114        4.00896683
 C           -0.64089856        0.73526673        3.95889553
 C           -0.97277821       -1.39004744        2.83193333
 C            1.14403714       -2.55555176        2.89928331
 C           -0.12085863       -2.39110620        2.34725958
 C            3.02623489       -1.21990103        2.67182043
 C            2.27989060       -2.29187807        2.04234995
 C            3.08022152        1.20192657        2.67649450
 C            3.16074099       -0.00931032        1.98723101
 C            1.20226941        2.54526543        2.84725032
 C            2.38521896        2.30230813        2.04899333
 C           -0.89811561        1.34760282        2.72981149
 C           -0.03892035        2.34207236        2.23768019
 C           -1.78786138       -0.73218735        1.91273011
 C           -1.70402129        0.65825763        1.82384411
 C           -2.23770461       -1.44573471        0.80626157
 C           -0.27316250       -2.76096057        1.01637994
 C           -1.51970557       -2.58494273        0.44040923
 C            2.04460428       -2.21635201        0.67754538
 C            0.85003470       -2.74035521        0.18043462
 C            2.97529441       -0.00342321        0.59917046
 C            2.67014106       -1.20612766       -0.04344224
 C            2.20582628        2.27764874        0.68126507
 C            2.72006144        1.21072034       -0.05457473
 C           -0.12809827        2.68638338        0.88407339
 C            1.06753812        2.89694917        0.19519029
 C           -2.05527667        1.27461110        0.62889181
 C           -1.26645077        2.32645881        0.15817076
 C           -3.01544190       -0.78633667       -0.14693724
 C           -2.91072303        0.60720574       -0.24492984
 C           -3.56584714       -1.53824090       -1.18474324
 C           -1.71612909       -3.14072767       -0.81193590
 C           -2.88644234       -2.75449813       -1.57172555
 C            0.66941951       -2.79961188       -1.20693194
 C           -0.57968710       -3.16184359       -1.71292694
 C            2.54949196       -1.22536091       -1.42454036
 C            1.54432163       -2.08880870       -2.02847838
 C            2.52554842        1.22874164       -1.44170106
 C            2.55447456        0.02897446       -2.15210726
 C            1.03027147        3.14451361       -1.16209692
 C            1.90031080        2.34400092       -2.00468891
 C           -1.38235954        2.74097974       -1.17453359
 C           -0.25342550        3.23606827       -1.82351813
 C           -3.33028973        1.27780366       -1.38938691
 C           -2.46697567        2.30508370       -1.93731479
 C           -3.98655198       -0.89451131       -2.41160557
 C           -3.89648602        0.54455286       -2.50337884
 C           -2.47592325       -2.59779584       -2.95663932
 C           -1.02728813       -2.59007393       -2.97371150
 C           -3.18208219       -1.45673364       -3.48888360
 C            1.02815077       -1.41488698       -3.21158431
 C            1.72651627       -0.15008304       -3.34050128
 C           -0.33058016       -1.50663269       -3.50647531
 C            1.26717393        2.24340810       -3.30735499
 C           -0.02804877        2.89816470       -3.21643154
 C            1.06575411        0.93348939       -3.89103746
 C           -2.28133949        2.01045294       -3.35661043
 C           -3.09279657        0.85275872       -3.67282646
 C           -2.41469249       -0.37021551       -4.05978300
 C           -1.01692611       -0.39656428       -4.03145884
 C           -1.00087134        2.06299904       -3.88432049
 C           -0.34116587        0.80986513       -4.23427083
