   70
C70 / DATE: 7/ 1/2024 / Origin: Program Fullerene / C70 from database
 C            1.02678413       -0.19733598        4.68414918
 C            2.29676335       -0.51476644        4.06769577
 C            2.18295488       -1.83197939        3.46427728
 C            0.16362468       -1.35856261        4.53551592
 C            0.80342439       -2.25966990        3.59767970
 C           -1.16592756       -0.88019372        4.23611342
 C            0.29134811        0.95757062        4.20148758
 C           -1.10388966        0.57002875        4.13068800
 C            0.81869712        1.73123904        3.16836426
 C            2.81260403        0.38186210        3.05516393
 C            2.16636207        1.58429886        2.79868465
 C            2.75549272       -1.76408117        2.12868869
 C            3.24322519       -0.41339463        1.91742793
 C            2.09164047       -2.39052563        1.08698893
 C            0.13347456       -2.66604715        2.44574769
 C            0.90319172       -3.07290676        1.35864571
 C           -1.82844025       -1.37163908        3.04476658
 C           -1.20752792       -2.31326907        2.22695537
 C           -1.87148428        0.95834520        2.96091919
 C           -2.47301284       -0.24092894        2.41121029
 C           -0.06632304        2.41224987        2.32246413
 C           -1.33691123        1.88681163        2.07700909
 C            0.42976494        3.38681404        1.46815987
 C            2.64217851        2.30329974        1.71057474
 C            1.85027067        3.39760610        1.19673557
 C            3.16219023        0.15972001        0.64508422
 C            3.15338244        1.55059397        0.57204695
 C            2.33092254       -1.93913412       -0.20725266
 C            2.62937967       -0.58991840       -0.41459615
 C            1.88500714       -2.71619793       -1.26446557
 C            0.26467394       -3.73531200        0.32124513
 C            0.89653951       -3.74008726       -0.98419426
 C           -1.75400169       -2.52632552        0.95794399
 C           -1.14670954       -3.46764671        0.12814332
 C           -2.68660409       -0.30268887        1.04235782
 C           -2.57200118       -1.53464089        0.40209405
 C           -1.86828720        1.95867144        0.78816496
 C           -2.58602312        0.86416678        0.28357815
 C           -0.25776351        3.64566293        0.21502647
 C           -1.45632497        2.98882215       -0.06215557
 C            2.03074082        3.42929704       -0.24282924
 C            2.68991204        2.20333206       -0.63524583
 C            0.74548975        3.72022535       -0.83793249
 C            2.19401544        0.04897530       -1.58866153
 C            2.10424978        1.44362664       -1.63544046
 C            1.51976994       -2.07582131       -2.51111314
 C            1.71615855       -0.70747474       -2.66752480
 C           -0.14781392       -3.64736631       -1.98731049
 C           -1.41144722       -3.46601347       -1.30228664
 C            0.26429189       -2.65794238       -2.96396408
 C           -2.97771299       -1.62500350       -0.92424664
 C           -2.32017310       -2.55969659       -1.82138555
 C           -2.97509519        0.83178906       -1.05606240
 C           -3.22392645       -0.39839315       -1.66568980
 C           -1.89967160        3.00277158       -1.38184465
 C           -2.78765854        1.95672248       -1.84771347
 C            0.42860714        3.14361020       -2.06006306
 C            1.19484412        2.05272734       -2.50361058
 C           -0.91020767        3.21541677       -2.42309830
 C            1.02028656       -0.07309564       -3.69630425
 C            0.82387724        1.36394966       -3.65312733
 C           -0.68588542       -1.81682421       -3.53247753
 C           -2.00018407       -1.84147315       -3.04953360
 C           -2.80123767       -0.62525640       -3.04073491
 C           -0.21649401       -0.67540537       -4.17395274
 C           -2.55921103        1.79413238       -3.27595263
 C           -1.36581216        2.54898683       -3.62316786
 C           -0.44891422        1.65429635       -4.29181671
 C           -2.41459246        0.45546981       -3.81932639
 C           -1.13887047        0.39392632       -4.50671722
