   70
C70 / DATE: 7/ 1/2024 / Origin: Program Fullerene / C70 from database
 C            1.48282380       -0.00078685        5.14146363
 C            0.60026394       -1.14783771        5.24611505
 C            1.17181326       -2.21213901        4.44641104
 C            2.53472505       -0.32423447        4.18965400
 C            2.33970201       -1.68944779        3.75287753
 C            2.56014490        0.71893382        3.18318093
 C            0.71491500        1.08940600        4.57447862
 C            1.50593238        1.66493121        3.50640076
 C           -0.67290791       -0.79345403        4.63835688
 C           -0.60409504        0.59446643        4.23050916
 C            0.10084548       -2.77024457        3.64286533
 C           -0.97590088       -1.78882439        3.62767042
 C            0.45400359       -3.36360710        2.44346173
 C            2.48039769       -1.98717755        2.40069653
 C            1.77776236       -3.08621829        1.91010122
 C            2.73451254        0.36582783        1.84370881
 C            2.88684442       -0.98549227        1.50651416
 C            2.33769651        1.28516839        0.85991630
 C            0.83393889        2.23428556        2.43921705
 C            1.53595052        2.36161437        1.25202996
 C           -1.11078229        0.95167945        2.98634295
 C           -0.54788876        2.05195410        2.34591508
 C           -1.48754708       -1.36486075        2.40038062
 C           -1.75123417       -0.00552548        2.19616966
 C           -0.45613996       -3.25170029        1.32276581
 C           -1.38348455       -2.21217949        1.29619910
 C            1.72200910       -3.32101196        0.47971900
 C            0.32378687       -3.51917335        0.12801646
 C            3.09499321       -1.32188453        0.17193572
 C            2.51447346       -2.54872757       -0.35228387
 C            2.43263615        0.94012440       -0.49562557
 C            2.94980875       -0.29655478       -0.84717712
 C            1.77936091        1.70391119       -1.46628100
 C            0.96913219        3.18090916        0.29215175
 C            1.25950276        2.93907212       -1.10194510
 C           -1.18925163        2.54478349        1.21222824
 C           -0.45954062        3.40087598        0.39045531
 C           -2.26415786        0.40962795        0.96725700
 C           -2.19756761        1.76532944        0.64193190
 C           -1.85974020       -1.78495438        0.05882758
 C           -2.45302542       -0.52740783       -0.05147627
 C           -0.14536425       -3.02398636       -1.08062417
 C           -1.40778941       -2.43024491       -1.09101517
 C            2.04818013       -2.27767384       -1.69893238
 C            2.47541039       -0.93708526       -2.05848816
 C            0.77437802       -2.68774373       -2.07905565
 C            1.42180302        1.13221326       -2.69722461
 C            1.68873783       -0.21678412       -2.95123693
 C            0.61621016        1.84601144       -3.58924364
 C            0.16623596        3.51549430       -1.86235363
 C           -0.94836040        3.70941177       -0.93910028
 C           -0.07152572        3.04757306       -3.14519216
 C           -2.82818482        2.20774573       -0.51637456
 C           -2.22012639        3.27920375       -1.28956772
 C           -2.97339454       -0.11425655       -1.28259962
 C           -3.32889934        1.22098305       -1.45496651
 C           -1.98843058       -2.11836267       -2.30955083
 C           -2.82190618       -0.93258512       -2.40358429
 C            0.28920431       -2.20085764       -3.28704491
 C            0.82674276       -0.94002282       -3.77620616
 C           -1.14597850       -2.16416953       -3.48655015
 C           -0.28221327        1.12705243       -4.47874875
 C           -2.60165725       -0.34053314       -3.71865210
 C           -0.22732337       -0.25823063       -4.50864986
 C           -1.45586890       -1.00993291       -4.30910522
 C           -1.43690369        2.99488496       -3.64100851
 C           -2.52988402        3.05467279       -2.68895229
 C           -3.27570828        1.81039955       -2.78260229
 C           -1.58464129        1.77371270       -4.41155057
 C           -2.71745417        1.03365399       -3.87295528
