   70
C70 / DATE: 7/ 1/2024 / Origin: Program Fullerene / C70 from database
 C            1.42277602       -0.14394273        5.23914476
 C            0.55064394       -1.30232901        5.23867470
 C            1.15648572       -2.30109964        4.38112507
 C            2.51418446       -0.40451649        4.31261557
 C            2.29318268       -1.69387377        3.70561273
 C            2.61970144        0.73581624        3.44066980
 C            0.66733681        0.97390080        4.70444154
 C            1.51806922        1.63895332        3.74539253
 C           -0.70438249       -0.91668974        4.61498184
 C           -0.60256806        0.47660295        4.22548909
 C            0.10026033       -2.85021009        3.55619743
 C           -1.00043332       -1.89625393        3.58418146
 C            0.46826732       -3.36108642        2.32551627
 C            2.38004692       -1.82644671        2.31794289
 C            1.73713804       -2.92393292        1.75806127
 C            2.93101511        0.54162225        2.09857661
 C            2.66468731       -0.70812478        1.50558919
 C            2.84402990        1.68158309        1.31541656
 C            0.92758809        2.28314422        2.66550478
 C            1.79838314        2.63508439        1.64946778
 C           -0.99127958        0.83220432        2.93950240
 C           -0.38030789        1.92365026        2.30817167
 C           -1.53035521       -1.45433017        2.37107452
 C           -1.70564595       -0.08369953        2.16410194
 C           -0.49184430       -3.29595202        1.24422208
 C           -1.45963170       -2.29797082        1.26106156
 C            1.61812367       -3.02463525        0.32318062
 C            0.27024981       -3.48896472        0.03155889
 C            2.51833659       -0.80684693        0.10083468
 C            2.15934455       -2.03280792       -0.48086577
 C            2.87694876        1.57029821       -0.12135952
 C            2.64076525        0.33651642       -0.70954574
 C            1.26457237        3.14657636        0.41082631
 C            2.18234472        2.73782923       -0.63197318
 C           -0.90025448        2.33584742        1.07546748
 C           -0.09946623        3.04895807        0.17274481
 C           -2.23387659        0.35360256        0.95533344
 C           -2.03475641        1.68241048        0.59732743
 C           -1.96477580       -1.85501491        0.03938278
 C           -2.52805302       -0.58051190       -0.03832058
 C           -0.29920569       -3.10194164       -1.17009308
 C           -1.55564818       -2.49492115       -1.13433217
 C            1.81644331       -2.08439313       -1.82880689
 C            0.57528229       -2.75003271       -2.19052498
 C            2.24499722        0.30667536       -2.05163083
 C            1.92737719       -0.89972097       -2.64952029
 C            1.71066631        2.70693850       -1.92915494
 C            1.87992606        1.48702881       -2.69813257
 C           -0.55555321        3.24796937       -1.13250945
 C            0.36100620        3.18057930       -2.18629190
 C           -2.65525857        2.16328617       -0.54464893
 C           -1.90980064        3.07044429       -1.39451703
 C           -3.08654684       -0.14523860       -1.24204859
 C           -3.33363530        1.21849316       -1.41228577
 C           -2.15413072       -2.13054101       -2.33524141
 C           -3.06871496       -1.00358438       -2.34263300
 C            0.05022793       -2.11762968       -3.38424899
 C            0.87246223       -0.94653402       -3.65569360
 C           -1.32536185       -2.02428442       -3.52821965
 C            0.82556073        1.45867253       -3.70342867
 C           -0.03711367        2.60921361       -3.46241838
 C            0.27195622        0.23789420       -4.08638485
 C           -2.36089965        2.86579614       -2.76230408
 C           -3.35670590        1.80703710       -2.74150513
 C           -1.38403125        2.53710884       -3.78385643
 C           -3.06874116       -0.47112284       -3.69560209
 C           -1.86103266       -0.95225086       -4.34335569
 C           -1.02156207        0.20164786       -4.60957051
 C           -3.12712463        0.96205769       -3.89355504
 C           -1.87168986        1.37599229       -4.50481273
