   70
C70 / DATE: 7/ 1/2024 / Origin: Program Fullerene / C70 from database
 C            1.33284031        0.12638330        5.34059205
 C            0.45219667       -1.01317648        5.51834800
 C            1.09301040       -2.16635702        4.91272147
 C            2.47956342       -0.30976105        4.55996288
 C            2.37354421       -1.74188706        4.36457520
 C            2.57420866        0.54820198        3.39148561
 C            0.62089113        1.11481885        4.55080972
 C            1.48470317        1.50910181        3.45928621
 C           -0.76834785       -0.75233437        4.77333751
 C           -0.68158830        0.58216417        4.20670967
 C            0.12526212       -2.79292049        4.02633278
 C           -0.98534926       -1.86442447        3.86698996
 C            0.59616491       -3.46950649        2.90844104
 C            2.78270554       -2.27665118        3.14966732
 C            2.00749000       -3.36335589        2.57610792
 C            2.88826887       -0.00943810        2.15010568
 C            3.14356113       -1.38076586        2.05495402
 C            2.52409202        0.69135985        0.99592963
 C            0.89392352        1.88098485        2.26225740
 C            1.67070562        1.78778159        1.12293041
 C           -1.13201791        0.77673367        2.90347263
 C           -0.48264482        1.71755908        2.10528242
 C           -1.45590278       -1.58559322        2.58813119
 C           -1.79265092       -0.26580321        2.26118619
 C           -0.14835161       -3.38072284        1.66282386
 C           -1.21825917       -2.49761745        1.55783225
 C            2.12256170       -3.27821116        1.13087748
 C            2.85293168       -2.07247657        0.80597218
 C            0.79960083       -3.43416772        0.56475534
 C            2.60033617        0.05060437       -0.24409382
 C            2.42501029       -1.32690634       -0.28406956
 C            2.28226849        0.77797458       -1.38809651
 C            1.17225942        2.35830882       -0.03296994
 C            1.84951413        2.08899442       -1.20802774
 C           -1.02349682        1.99169801        0.84616323
 C           -0.20218603        2.58625477       -0.10903427
 C           -2.33623281       -0.01660332        1.00434728
 C           -2.09860728        1.22570408        0.40067702
 C           -1.67373501       -2.17085402        0.28572558
 C           -2.56846640       -1.11565215        0.18760233
 C            0.48516159       -2.72035242       -0.58515218
 C            1.42868032       -1.84439309       -1.11982734
 C           -0.85141464       -2.43653969       -0.81496281
 C            1.79642632        0.06879777       -2.48790905
 C            1.07341827       -1.09451095       -2.24278138
 C            1.56729397        0.76052532       -3.66881148
 C            1.48860341        2.82476531       -2.32319264
 C            1.66884449        2.20427734       -3.61632638
 C           -0.74247510        2.93676180       -1.34652053
 C            0.15307875        3.38973619       -2.31952141
 C           -2.61045487        1.45559993       -0.88085085
 C           -1.97225268        2.37774520       -1.72907271
 C           -3.16905738       -0.90258163       -1.03790688
 C           -3.42496543        0.46375422       -1.42758960
 C           -1.20530365       -1.88925546       -2.04387881
 C           -0.21863768       -1.21401721       -2.77929442
 C           -2.53392443       -1.51347622       -2.18543517
 C            0.37621840        0.44136788       -4.43668645
 C           -0.57463279       -0.42182691       -3.88557335
 C            0.67923963        2.76888109       -4.51359793
 C           -0.26336790        3.52298224       -3.70112017
 C           -0.05225343        1.66526395       -5.10357988
 C           -2.46759298        2.58445122       -3.02430687
 C           -1.59125350        3.08981249       -4.06506219
 C           -1.45111923        2.03190374       -5.06085790
 C           -3.65687068        0.41501396       -2.85598339
 C           -2.94151750       -0.75723931       -3.34596721
 C           -1.91924145       -0.27950786       -4.24630122
 C           -3.24166913        1.53896358       -3.65945658
 C           -2.40873817        1.00365580       -4.72257483
