   70
C70 / DATE: 7/ 1/2024 / Origin: Program Fullerene / C70 from database
 C            1.42036384        0.12490639        5.01034845
 C            0.62589116       -1.09100002        5.00686974
 C            1.42754046       -2.14235913        4.41079960
 C            2.62346354       -0.13022320        4.23615884
 C            2.67516271       -1.54580144        3.95714659
 C            2.63689023        0.79007024        3.11325006
 C            0.66052942        1.15083457        4.31841927
 C            1.46719372        1.64439691        3.22428766
 C           -0.66270461       -0.78006112        4.41637537
 C           -0.64567796        0.61472888        4.00019587
 C           -1.26573372       -1.71210699        3.58201484
 C            0.87159551       -2.91153072        3.30694477
 C           -0.47240417       -2.78817878        2.99302122
 C            2.88379061       -1.95686238        2.58628976
 C            1.84321054       -2.90680181        2.23021175
 C            2.99916494        0.33904346        1.84174544
 C            3.26611894       -1.02347020        1.62698216
 C            2.64754281        1.13894596        0.75036215
 C            0.82845163        2.01314172        2.04874185
 C            1.57757024        2.03207013        0.88487049
 C           -1.21967196        0.95790809        2.77768472
 C           -0.55326763        1.85638702        1.93318592
 C           -2.16567109       -1.23576144        2.55048591
 C           -2.19624884        0.12154647        2.23545875
 C           -0.88438525       -2.93089003        1.60587341
 C           -2.11537683       -2.18737763        1.45784754
 C            1.42753170       -2.94769298        0.89770498
 C            0.06138643       -2.87078240        0.58520093
 C            3.29969592       -1.49148552        0.31880718
 C            2.35707974       -2.53728052       -0.04927660
 C            3.09476504        0.78839193       -0.52423211
 C            3.35450951       -0.54847759       -0.77983808
 C            2.76907008        1.60659119       -1.59978164
 C            1.01445312        2.60055411       -0.24796938
 C            1.80132058        2.66188190       -1.38748565
 C           -1.16665671        2.21718210        0.73035383
 C           -0.38281038        2.66289236       -0.34525382
 C           -2.78486092        0.48777927        1.02817775
 C           -2.44102770        1.72098928        0.47869202
 C           -2.46944996       -1.71993214        0.20650547
 C           -3.18573169       -0.53558077        0.16763629
 C           -0.35212474       -2.46789286       -0.69624528
 C           -1.67595142       -2.03520376       -0.89721447
 C            1.93397119       -2.29380616       -1.40934437
 C            2.71733007       -1.18171826       -1.92323561
 C            0.58757568       -2.36515975       -1.72821620
 C            2.44112260        0.98916979       -2.87650904
 C            2.16814888       -0.37733883       -2.91681617
 C            1.19410931        2.96306796       -2.66256457
 C            1.59834885        1.92460290       -3.60023592
 C           -1.00063526        2.99702222       -1.56126205
 C           -0.24387063        3.08051946       -2.73041435
 C           -3.12062614        2.15210976       -0.65191574
 C           -2.37974323        2.84588144       -1.69034446
 C           -3.79219616       -0.19970935       -1.02874241
 C           -4.00486531        1.20526279       -1.30295807
 C           -2.08578348       -1.55912196       -2.15058119
 C           -3.26072882       -0.80571480       -2.23734547
 C            0.20600494       -1.86192963       -2.96348234
 C            1.03737910       -0.84361416       -3.59167013
 C           -1.17916388       -1.52264818       -3.20573371
 C            0.40255245        1.44040521       -4.26211562
 C           -0.67587204        2.34927804       -3.91160561
 C            0.15831523        0.07439361       -4.30304301
 C           -1.20292887       -0.41612119       -4.15634652
 C           -2.91458249        2.42103730       -2.97622392
 C           -3.91216579        1.39714803       -2.73683483
 C           -3.41502423        0.15990547       -3.31376770
 C           -1.99045476        1.90949724       -3.97118732
 C           -2.26075404        0.48409249       -4.12885724
