   70
C70 / DATE: 7/ 1/2024 / Origin: Program Fullerene / C70 from database
 C            1.62884295       -0.00978178        4.44331232
 C            0.79951704       -1.19536785        4.33888294
 C            1.36201233       -2.04733923        3.30582203
 C            2.61619250       -0.06432814        3.37807901
 C            2.47753126       -1.33528381        2.70874677
 C            2.48804827        1.13720908        2.58266984
 C            0.78041474        1.14037490        4.19457590
 C            1.39385293        1.91185449        3.13929355
 C           -0.57858357       -0.76600849        4.20365654
 C           -0.57506723        0.67357972        3.98825105
 C           -1.42968452       -1.54997802        3.44377055
 C            0.49940753       -2.74447266        2.46029387
 C           -0.87881628       -2.66456694        2.68417676
 C            0.96384359       -3.12707770        1.19708806
 C            2.60101063       -1.38189048        1.33078064
 C            2.10966060       -2.50713295        0.68502915
 C            2.58514833        1.04803938        1.19134727
 C            2.77623314       -0.20234055        0.59096431
 C            2.05022724        2.09060326        0.42831122
 C            0.57756512        2.56798868        2.23953533
 C            1.16347899        2.97534826        1.05709661
 C           -1.31012567        1.21135955        2.93085229
 C           -0.79909039        2.31549340        2.23006085
 C           -2.41972927       -0.90371133        2.60130763
 C           -2.36427087        0.47111720        2.38844517
 C           -1.80475755       -2.93567876        1.59574490
 C           -2.67597905       -1.77833103        1.46715432
 C            0.09344716       -3.79547814        0.33727640
 C           -1.33148789       -3.54936855        0.45037657
 C            0.40179369       -3.89096205       -1.07864656
 C            2.49363397       -2.70835596       -0.63236537
 C            1.65771283       -3.49702998       -1.51775559
 C            2.81822361       -0.29233623       -0.80333128
 C            2.96880921       -1.55593653       -1.37441453
 C            2.09274741        2.00806065       -0.96975740
 C            2.33424711        0.77093680       -1.57788757
 C            1.53114019        3.03142260       -1.73777435
 C            0.47006783        3.91230185        0.31729139
 C            0.82208796        4.10174237       -1.06832154
 C           -1.57437103        2.93038572        1.23797947
 C           -0.97822180        3.90224883        0.42845673
 C           -3.06979486        0.98344981        1.30788759
 C           -2.72679394        2.29052757        0.78319821
 C           -2.90493040       -1.20618315        0.21599616
 C           -3.35362012        0.10921550        0.17685621
 C           -1.77615069       -3.05457129       -0.83824569
 C           -0.79339383       -3.48601415       -1.81379119
 C           -2.32795662       -1.77650884       -0.92532446
 C           -0.67596995       -2.78061595       -3.00156275
 C            1.81443692       -2.96473742       -2.85830985
 C            2.62558989       -1.75916877       -2.76496834
 C            0.62747220       -2.64599815       -3.62812030
 C            1.78737039        0.53489583       -2.84784489
 C            1.93250936       -0.70098419       -3.46166954
 C            0.75754765       -1.27626874       -4.08917201
 C            0.76275563        2.67118389       -2.91661018
 C            0.73408880        1.33397681       -3.27137419
 C           -0.40249178        4.37008325       -1.80120062
 C           -1.51755782        4.14898062       -0.89710107
 C           -0.49680577        3.38804518       -2.86281431
 C           -3.04028811        2.27349509       -0.64044610
 C           -3.18017759        0.88380793       -1.03403669
 C           -2.38209664        3.14701607       -1.48798624
 C           -1.70519183        2.61180655       -2.65947755
 C           -2.11946243       -1.00137556       -2.07672514
 C           -1.37564154       -1.51367244       -3.14086040
 C           -0.51646853       -0.60814559       -3.88241686
 C           -0.50281347        0.72730749       -3.50181502
 C           -2.38626505        0.36989582       -2.05132788
 C           -1.62461288        1.23324725       -2.84711217
