   70
C70 / DATE: 7/ 1/2024 / Origin: Program Fullerene / C70 from database
 C            1.23829957        0.00067212        4.21645175
 C            2.55776198       -0.30000375        3.71276820
 C            2.60000825       -1.72046243        3.42026775
 C            0.42069938       -1.19670551        4.07258962
 C            1.23513609       -2.21567950        3.44735385
 C           -0.81614197       -0.80619006        3.42891092
 C            0.50450084        1.09662882        3.61760601
 C           -0.85457465        0.64375766        3.42189558
 C            1.08249065        1.86687156        2.61177883
 C            3.02322339        0.40215541        2.53427165
 C            2.28072360        1.45239719        2.00785491
 C            3.36791715       -1.90063288        2.20254709
 C            3.57335064       -0.57952728        1.61467378
 C            3.01898648       -2.95271787        1.37048628
 C            0.75258106       -2.88416824        2.32592304
 C            1.67939374       -3.51282197        1.49214559
 C           -1.24066118       -1.48521221        2.29079842
 C           -0.53704586       -2.61143542        1.84728893
 C           -2.14946470       -0.84619657        1.43963640
 C           -1.60370809        1.26939191        2.44040067
 C           -2.47087198        0.49227806        1.67809589
 C            0.23982242        2.72650433        1.90066986
 C           -1.13756241        2.47240089        1.90853574
 C            0.79429596        3.50095731        0.88299360
 C            2.52700133        1.81486288        0.69010048
 C            2.00043188        3.01697463        0.24122803
 C            3.40203161       -0.39108377        0.23820822
 C            2.87165206        0.81731485       -0.23037029
 C            3.30737926       -2.82910701       -0.04248499
 C            3.41587705       -1.49856589       -0.61099879
 C            1.27520481       -3.98847403        0.18084771
 C            2.27538298       -3.54413635       -0.77299083
 C           -1.00875361       -3.30557785        0.73906847
 C           -0.05979697       -3.91254389       -0.18043215
 C           -2.58765067       -1.47705586        0.27004510
 C           -2.08038519       -2.73132185       -0.05971123
 C           -3.28630222       -0.75011280       -0.70088698
 C           -3.38647180        1.13767370        0.85970250
 C           -3.76320652        0.52345924       -0.39771468
 C           -1.98298525        3.19101827        1.06768271
 C           -3.21800347        2.56200247        0.62892151
 C           -0.05671369        4.08597253       -0.14217360
 C           -1.42755222        3.90152066       -0.07016384
 C            1.86937869        3.23650564       -1.18265848
 C            0.60188194        3.90476862       -1.42083004
 C            2.38168711        0.88000758       -1.54025237
 C            1.94505788        2.08785216       -2.05901758
 C            2.61197732       -1.47355429       -1.82210562
 C            1.85743114       -2.70946870       -1.88616015
 C            1.98484611       -0.28883723       -2.17509857
 C           -0.40017875       -3.43531905       -1.50912838
 C           -1.79346810       -3.03393899       -1.45252674
 C            0.50999287       -2.64379574       -2.21345949
 C           -3.21245267       -1.14338018       -2.03729529
 C           -2.26673713       -2.17160693       -2.42499654
 C           -3.15361572       -0.12539907       -3.06974814
 C           -3.75692735        1.56191640       -1.42283093
 C           -3.36277533        2.80584745       -0.79588529
 C           -2.15628593        3.46963864       -1.25669430
 C           -3.24503768        1.26640348       -2.67576268
 C           -0.09339743        3.18342542       -2.47131910
 C            0.76677793        2.09194100       -2.90704260
 C           -1.46416105        2.95937181       -2.35970166
 C           -2.02753144        1.93367581       -3.12128670
 C            0.75507708       -0.32298396       -2.84175723
 C            0.03897334       -1.53050560       -2.90932912
 C           -1.29760563       -1.52956164       -3.29439832
 C           -1.90025452       -0.31027372       -3.78441018
 C            0.18033170        0.88329065       -3.27675875
 C           -1.14928409        0.91889894       -3.68336751
