   70
C70 / DATE: 7/ 1/2024 / Origin: Program Fullerene / C70 from database
 C            1.20351163       -0.24735399        4.33348736
 C            2.44965807       -0.61750758        3.70365502
 C            2.36189929       -2.01684316        3.32006805
 C            0.36804683       -1.43397381        4.40883367
 C            1.07711354       -2.52637161        3.76785992
 C           -0.95656233       -1.07698141        3.92825733
 C            0.41581647        0.81181926        3.73335736
 C           -0.94934489        0.34412144        3.60533072
 C            0.94042759        1.57159164        2.69903046
 C            2.87794680        0.12914511        2.53842932
 C            2.20414552        1.28237694        2.16237627
 C            2.70414957       -2.11115100        1.90904197
 C            3.21643960       -0.81527853        1.49629316
 C            1.86015274       -2.81247021        1.05131542
 C            0.36997293       -3.37282010        2.92669841
 C            0.90477080       -3.66310120        1.60526742
 C           -1.64443867       -1.95547428        3.09541140
 C           -1.06382936       -3.18260744        2.76444195
 C           -2.68583833       -1.44661515        2.32114502
 C           -1.72891271        0.80068878        2.54109265
 C           -2.77207593       -0.00753502        2.11488902
 C            0.04858439        2.31549776        1.93338297
 C           -1.22420104        1.78968196        1.68157918
 C            0.58404508        3.26627759        1.08097962
 C            2.51813720        1.82220367        0.91968659
 C            1.93516785        3.04135803        0.60936385
 C            3.04291003       -0.41893631        0.17612980
 C            2.88670225        0.94362071       -0.11275795
 C            1.74731175       -2.39238652       -0.28055648
 C            2.57536844       -1.35955145       -0.73607816
 C            0.65822613       -2.78979748       -1.07105169
 C           -0.20297325       -4.11619146        0.79212623
 C           -1.43046740       -3.84457520        1.52359849
 C           -0.35182890       -3.56926190       -0.53645752
 C           -3.07307965       -2.09949397        1.07698672
 C           -2.35024889       -3.18608699        0.61749630
 C           -1.71645560       -3.10569507       -0.69053562
 C           -3.36411220        0.21811533        0.81739572
 C           -3.44442546       -1.06308551        0.13560339
 C           -1.88468398        2.08774655        0.47272901
 C           -2.99366863        1.32496762        0.06906832
 C           -0.19791431        3.74293850       -0.03691736
 C           -1.37528619        3.08745018       -0.37580089
 C            2.03506317        3.55502861       -0.73523759
 C            0.73781649        4.10569553       -1.09046429
 C            2.80827022        1.34345814       -1.45512019
 C            2.43509830        2.64690041       -1.78507015
 C            2.54384381       -1.01336846       -2.08082754
 C            2.79528093        0.36826704       -2.44955283
 C            0.36169979       -2.05861168       -2.21169360
 C            1.42478436       -1.47292218       -2.87751223
 C           -1.95484265       -1.99613728       -1.50544310
 C           -3.00854282       -1.13374130       -1.18494806
 C           -0.94040469       -1.55960712       -2.37346702
 C           -3.32969741        1.27479234       -1.27815982
 C           -3.20906724       -0.00187377       -1.96348532
 C           -1.82532782        3.19411136       -1.69253440
 C           -2.85571465        2.30406111       -2.16882038
 C            0.44449052        3.70755261       -2.45540627
 C            1.55142658        2.88208499       -2.91908180
 C           -0.85948959        3.34921320       -2.77061808
 C            2.07726692        0.62242709       -3.68771242
 C            1.16963702       -0.49245935       -3.90602378
 C            1.31563845        1.85115199       -3.82030724
 C           -1.19692580       -0.50496630       -3.26125736
 C           -2.37588635        0.21792869       -3.12712003
 C           -2.35899356        1.65129463       -3.37033528
 C           -1.10528639        2.28696566       -3.73495226
 C           -0.16799184        0.03901666       -4.02973697
 C           -0.05230253        1.48528264       -4.15736444
