   70
C70 / DATE: 7/ 1/2024 / Origin: Program Fullerene / C70 from database
 C            1.27505282       -0.09153791        4.67853302
 C            2.56827833       -0.25569541        4.04346415
 C            2.60770926       -1.59539139        3.49097434
 C            0.46451329       -1.25679737        4.34548494
 C            1.25124630       -2.11446315        3.49103958
 C           -0.80906113       -0.78067714        3.85949248
 C            0.48695090        1.08796551        4.37391402
 C           -0.87715975        0.63853560        4.15149396
 C            1.02171213        2.07993238        3.55633990
 C            2.96233759        0.66336818        2.98879228
 C            2.23672602        1.82724487        2.78824965
 C            3.30327242       -1.52814289        2.22226742
 C            3.36516510       -0.12623537        1.83553274
 C            2.94025035       -2.44297987        1.25325786
 C            0.72093716       -2.56737349        2.28451893
 C            1.62350313       -3.06334914        1.34979224
 C           -1.29703396       -1.23452344        2.63771669
 C           -0.52499969       -2.09720925        1.83939646
 C           -2.37855653       -0.55477434        2.07575475
 C           -1.73757710        1.42048178        3.39564962
 C           -2.62592364        0.76248144        2.45086333
 C            0.13245438        2.87062060        2.72187956
 C           -1.23333478        2.62243746        2.74746037
 C            2.00560229        2.28639575        1.43151512
 C            0.78719064        3.07522939        1.43973321
 C            2.95854105        0.24607498        0.54741320
 C            2.25787316        1.43891011        0.35158011
 C            3.08902151       -2.05752949       -0.12956677
 C            2.98466666       -0.70847498       -0.47175540
 C            1.18093939       -3.33406549       -0.00620842
 C            2.30568725       -3.02034631       -0.86966828
 C           -0.98197138       -2.44628908        0.55956365
 C           -0.09612404       -2.94385377       -0.39891689
 C           -2.94305270       -1.02543777        0.90101774
 C           -2.25703139       -2.06799150        0.16522278
 C           -3.48595968       -0.07532415       -0.06130769
 C           -2.96910150        1.73530512        1.42949985
 C           -2.00314557        2.81688845        1.53199559
 C           -3.34308190        1.29400375        0.16124932
 C            0.02451633        3.11877418        0.28109326
 C           -1.36764884        3.23869928        0.37199064
 C            1.57520521        1.65578513       -0.84832534
 C            0.59918662        2.65453946       -0.90184639
 C            2.51587085       -0.38483586       -1.74813950
 C            1.74599944        0.77494313       -1.92467492
 C            2.04563748       -2.73832522       -2.19174429
 C            2.42275059       -1.42443234       -2.67393013
 C           -0.35823464       -2.76836238       -1.76631229
 C            0.69538947       -2.93457415       -2.66979747
 C           -2.53637388       -1.87435518       -1.24436020
 C           -3.27367472       -0.62619966       -1.39114071
 C           -1.57151525       -2.20143896       -2.18819393
 C           -2.98353841        0.21919762       -2.45967411
 C           -3.12185457        2.14321276       -0.92216849
 C           -2.11624993        3.19100392       -0.79682340
 C           -3.03200011        1.59965248       -2.26909391
 C           -0.02444541        2.94670513       -2.10279564
 C           -1.42796578        3.29835368       -2.06611569
 C           -2.12234881        2.45039605       -3.01538721
 C            1.10064065        1.02878908       -3.14926651
 C            0.18006167        2.07195202       -3.23768729
 C           -1.12257221        1.82084338       -3.84783867
 C            1.68883702       -1.22980423       -3.90329689
 C            0.66206905       -2.26550511       -3.95238814
 C            1.03329437        0.03536515       -4.12407895
 C           -1.68194501       -1.61329638       -3.44883198
 C           -2.30076016       -0.30163716       -3.56189432
 C           -1.38833696        0.54844690       -4.32257624
 C           -0.56900464       -1.64369665       -4.37426035
 C           -0.25750585       -0.26760877       -4.71367636
