   70
C70 / DATE: 7/ 1/2024 / Origin: Program Fullerene / C70 from database
 C            1.68183437       -0.00482287        4.73937021
 C            0.83947418       -1.18344621        4.66451053
 C            1.25979930       -1.97124137        3.51542310
 C            2.60939523       -0.05732385        3.62564433
 C            2.40548683       -1.30420734        2.91981743
 C            2.47041951        1.16765974        2.87004205
 C            0.82988424        1.15578720        4.54743594
 C            1.29499272        1.86312204        3.36499382
 C           -0.54161608       -0.74480534        4.73140144
 C           -0.54825670        0.70772243        4.59503784
 C           -1.49062608       -1.49828610        4.05460090
 C            0.28078807       -2.51786066        2.68315992
 C           -1.03424778       -2.54109146        3.14785631
 C            0.54876159       -2.65718944        1.31049895
 C            2.51076788       -1.29556315        1.53810827
 C            1.79565062       -2.24539960        0.82511730
 C            2.64623020        1.11251667        1.49773827
 C            2.89672455       -0.11984844        0.88548948
 C            2.04634709        2.10394158        0.74058714
 C            0.36560917        2.34317339        2.43895351
 C            0.77466226        2.54146477        1.11366975
 C           -1.46673767        1.31517895        3.74846809
 C           -0.99583421        2.23948460        2.72391203
 C           -2.60961214       -0.83392703        3.40705009
 C           -2.55241932        0.53332959        3.17643036
 C           -2.11436110       -2.79999836        2.22514418
 C           -3.07085775       -1.70813737        2.34587783
 C           -0.47804377       -2.98310116        0.40535973
 C           -1.80373559       -2.95299373        0.82316818
 C           -0.24420881       -2.86474487       -0.96635361
 C            2.10281759       -2.40625908       -0.51626121
 C            1.06857001       -2.86100300       -1.41768115
 C            3.06653727       -0.14909281       -0.50414555
 C            2.83313178       -1.34209549       -1.18620796
 C            2.44938364        2.22151164       -0.57601460
 C            3.04065453        1.05451782       -1.20878507
 C            1.56382305        2.84666163       -1.53531026
 C           -0.18124871        2.80280465        0.12269391
 C            0.22917957        3.05077790       -1.19221495
 C           -1.94766359        2.19588943        1.63203854
 C           -2.82371942        1.05614359        1.84362728
 C           -1.51286135        2.44995936        0.34431807
 C           -3.28039257       -1.16449205        1.01449113
 C           -2.72823381       -2.12254621        0.07920859
 C           -3.07998161        0.19185416        0.77458819
 C           -1.25739033       -2.33318428       -1.77374299
 C           -2.31766681       -1.67408761       -1.16392671
 C           -1.01391592       -2.05303940       -3.11234163
 C            1.37888141       -2.34378379       -2.73757136
 C            2.40039365       -1.31759845       -2.57630363
 C            0.34235889       -2.12738549       -3.62942758
 C            2.65874553        1.07543848       -2.61337274
 C            1.91113843        2.30511518       -2.84079554
 C            2.27235529       -0.10286139       -3.24848777
 C            0.98636815        2.36313030       -3.87227123
 C           -0.73763769        3.06674193       -2.19825300
 C           -0.34837875        2.85176144       -3.58324113
 C           -2.23215124        1.88566861       -0.69795416
 C           -2.75882809        0.60705306       -0.52254772
 C           -2.57209624       -0.35220708       -1.52684722
 C           -1.97522454        2.34119896       -1.97803517
 C           -1.63825068       -0.87104680       -3.68152463
 C           -1.30125122        1.92047254       -4.16714563
 C           -2.22838518        0.05917313       -2.81891172
 C           -2.14107867        1.42556262       -3.08760952
 C            0.49254995       -1.08066129       -4.62367968
 C            1.47532064       -0.03785576       -4.39066441
 C            0.85789069        1.22439265       -4.76361249
 C           -0.79908907       -0.43528664       -4.78518072
 C           -0.56092540        0.97926492       -4.97940994
