   70
C70 / DATE: 7/ 1/2024 / Origin: Program Fullerene / C70 from database
 C            1.28485628       -0.24343714        4.36267269
 C            2.56420793       -0.59377915        3.79238703
 C            2.47928705       -1.96493520        3.31100123
 C            0.43976777       -1.42598195        4.33183068
 C            1.14871507       -2.46489466        3.61044167
 C           -0.87496572       -1.01898209        3.86538129
 C            0.53784404        0.84565655        3.76788114
 C           -0.83883409        0.41582212        3.62058024
 C            1.09700055        1.60890393        2.75255871
 C            3.08374102        0.21301576        2.70467121
 C            2.38318629        1.33427989        2.26011684
 C            2.93984287       -1.96856009        1.93153106
 C            3.61575256       -0.70357665        1.71622316
 C            2.10432165       -2.47585560        0.93694891
 C            0.46849760       -3.17813527        2.63416908
 C            1.05368920       -3.30369455        1.30670048
 C           -1.57610196       -1.83073639        2.97782259
 C           -0.96168282       -2.96885568        2.45539162
 C           -2.64567838       -1.26601304        2.29256785
 C           -1.60754658        0.93868443        2.58060292
 C           -2.68253816        0.17975726        2.12372913
 C            0.23883477        2.38997082        1.99163782
 C           -1.06537728        1.93326765        1.75314942
 C            0.80682112        3.33974405        1.15844171
 C            2.78556925        1.92085815        1.05513510
 C            2.10921451        3.04625443        0.59391423
 C            3.76023793       -0.24770294        0.41887760
 C            3.51655091        1.15926001        0.14470911
 C            2.12392446       -1.90734803       -0.34165048
 C            3.12683822       -0.99804593       -0.65150179
 C            1.02885923       -2.05811686       -1.20737350
 C           -0.02808742       -3.53119337        0.37578961
 C           -1.28071913       -3.40669682        1.10607535
 C            0.04350626       -3.00841034       -0.90873124
 C           -3.12478222       -1.86973892        1.05787294
 C           -2.38029802       -2.87735711        0.44074740
 C           -3.25770982        0.45901188        0.82146520
 C           -3.71712631       -0.79920737        0.26385320
 C           -1.72211724        2.27441038        0.56205367
 C           -2.63862829        1.39104931        0.00054575
 C           -0.00326349        3.95493927        0.13109508
 C           -1.26581439        3.33549180       -0.20686819
 C            2.03244563        3.30323751       -0.83790893
 C            0.79766066        4.03043797       -1.07790719
 C            3.21908743        1.26191143       -1.27313563
 C            2.94021986       -0.08483929       -1.75510515
 C            2.44295662        2.31997902       -1.73948056
 C            0.90102100       -1.23250511       -2.34479580
 C            1.88358221       -0.26872430       -2.63189976
 C           -0.22983002       -1.33976860       -3.17338671
 C           -1.12527510       -3.04041512       -1.65350383
 C           -2.39816973       -2.98600077       -0.94719273
 C           -1.23831760       -2.23728596       -2.84859785
 C           -3.79831933       -0.93212327       -1.11221948
 C           -3.29724325       -2.14929340       -1.71650766
 C           -2.61840705       -1.78932763       -2.94731222
 C           -2.75117958        1.28840728       -1.39123324
 C           -3.38554524        0.17927370       -1.95629419
 C           -2.86438133       -0.38108532       -3.19249439
 C           -1.33377349        3.22475772       -1.65186974
 C           -0.04030662        3.63451062       -2.18952174
 C           -2.00560332        2.13944395       -2.21515932
 C            1.76093575        2.15330019       -2.94702307
 C            1.57971630        0.80488795       -3.46081410
 C            0.53087040        2.89112075       -3.20898086
 C           -0.57534029       -0.28326733       -4.01432729
 C           -1.88710850        0.32867850       -3.86816835
 C           -1.64644631        1.70825568       -3.49223045
 C            0.36764576        0.78625510       -4.24117760
 C           -0.33069009        2.04105620       -4.00619970
