   70
C70 / DATE: 7/ 1/2024 / Origin: Program Fullerene / C70 from database
 C            1.27774548       -0.04496573        4.85704866
 C            2.44967135       -0.18299919        4.02188584
 C            2.48155136       -1.55358723        3.54030771
 C            0.44436994       -1.22168623        4.64430212
 C            1.18866218       -2.15128658        3.81606284
 C           -0.85596286       -0.76056071        4.18537782
 C            0.44010971        1.11782298        4.66290052
 C           -0.92439413        0.64143339        4.51606156
 C            0.69895596        1.99385902        3.52984574
 C            2.59815412        0.68759988        2.86429360
 C            1.59768750        1.60304863        2.54420863
 C            2.95646780       -1.51555470        2.16900530
 C            3.16532554       -0.12297471        1.81466475
 C            2.38014256       -2.34924918        1.21213761
 C            0.52542338       -2.79782877        2.78406760
 C            1.23284081       -3.07329709        1.54416409
 C           -1.33709301       -1.19413323        2.94670894
 C           -0.82293780       -2.37424936        2.42289284
 C           -2.06659831       -0.31797726        2.11939666
 C           -1.57098012        1.51461267        3.57525720
 C           -0.59093038        2.48922834        3.12617659
 C           -2.38954136        0.96345679        2.60040789
 C           -0.76572788        2.97632294        1.84252623
 C            1.30421744        1.86818852        1.19756800
 C            0.18337874        2.64534653        0.85634643
 C            2.94792637        0.22845989        0.49738640
 C            2.08454720        1.28549837        0.18863150
 C            2.60124120       -2.04173292       -0.13240927
 C            3.10722010       -0.77462626       -0.44068036
 C            1.86125004       -2.72206859       -1.09983815
 C            0.21461424       -3.27915619        0.53119694
 C           -1.01486428       -2.68180718        1.02190846
 C            0.54796927       -3.07319558       -0.79444965
 C           -2.23808474       -0.62028034        0.74907859
 C           -1.69116401       -1.78558972        0.20335003
 C           -2.91096598        0.27138041       -0.09510067
 C           -2.91797188        1.89191753        1.71936748
 C           -2.09344003        3.06065147        1.45726473
 C           -3.41378528        1.45378471        0.43970837
 C           -2.39609571        3.52115239        0.13258463
 C           -3.44430847        2.65273849       -0.37415084
 C           -0.14165150        2.83239235       -0.50059863
 C           -1.32566461        3.49516602       -0.83410833
 C            1.77914244        1.52349250       -1.15803824
 C            0.57003387        2.14026070       -1.49217829
 C            3.19575060       -0.38399807       -1.76265564
 C            2.49211993        0.82918273       -2.14145877
 C            2.21094641       -2.55667004       -2.43700935
 C            2.97751180       -1.37852822       -2.79163631
 C            1.18502574       -2.72995709       -3.45259199
 C           -0.46327800       -2.68619889       -1.66512543
 C           -1.50568718       -1.88170951       -1.17809853
 C           -0.20209383       -2.76409336       -3.02548166
 C           -2.84312847        0.10644297       -1.48837980
 C           -2.19713094       -1.01088740       -2.02706932
 C           -3.21879752        2.52205914       -1.78783911
 C           -1.96824568        3.20880638       -2.09457080
 C           -3.08769074        1.19281634       -2.33721156
 C            0.03009128        1.97179985       -2.78346408
 C           -1.27171631        2.38183942       -3.05026929
 C           -2.22216846        1.37437796       -3.47890355
 C            1.87789686        0.58944098       -3.43363528
 C            2.30895104       -0.72231990       -3.89766825
 C            1.32451518       -1.64923267       -4.41624380
 C            0.56793559        1.00467928       -3.63263566
 C           -0.95724796       -1.94355552       -3.94065439
 C           -1.93907493       -1.02398215       -3.40054847
 C           -1.71357042        0.24156308       -4.07403542
 C           -0.00151516       -1.14945274       -4.70188617
 C           -0.30588515        0.23856969       -4.41346723
