   70
C70 / DATE: 7/ 1/2024 / Origin: Program Fullerene / C70 from database
 C            1.55496751        0.10443068        4.60912887
 C            0.74349402       -1.09679655        4.56137882
 C            1.40134076       -2.04842955        3.68568009
 C            2.65069818       -0.06198133        3.66853161
 C            2.58160232       -1.39814644        3.13015064
 C            2.60951748        1.04019457        2.74002769
 C            0.73448107        1.20560108        4.13718678
 C            1.44887460        1.85051515        3.06048054
 C           -0.61479667       -0.70311577        4.25231299
 C           -0.59202358        0.69756565        3.85785239
 C           -1.39377543       -1.57932315        3.51920425
 C            0.62784985       -2.85606871        2.85059667
 C           -0.76513498       -2.72228258        2.86095956
 C            1.24609254       -3.42116313        1.73542490
 C            2.87681258       -1.60859878        1.78810331
 C            2.49282109       -2.83830941        1.27026030
 C            2.87438279        0.80724545        1.39413573
 C            3.03651098       -0.50864721        0.91929885
 C            2.50568446        1.80745693        0.49715471
 C            0.72780581        2.36105989        1.99319949
 C            1.43788417        2.64502480        0.83566586
 C           -1.21946845        1.08533288        2.67246081
 C           -0.64086561        2.07993186        1.87751290
 C           -2.36342033       -1.03338457        2.59022381
 C           -2.22118155        0.27817749        2.13350605
 C           -1.52260792       -2.98578891        1.64407705
 C           -2.66123011       -2.08446270        1.63767418
 C            0.45598753       -3.73645198        0.55513355
 C           -0.83744082       -3.24370577        0.46084423
 C            2.59387088       -3.08091843       -0.14804551
 C            1.33155111       -3.65253150       -0.59347585
 C            3.19664118       -0.72315253       -0.46361897
 C            2.90029444       -1.96815117       -1.01404495
 C            2.91271758        1.68906817       -0.82193589
 C            3.20237459        0.36569528       -1.33417842
 C            2.23852314        2.44319044       -1.86666708
 C            0.79383828        3.39501922       -0.13556925
 C            1.23206654        3.33196264       -1.51712887
 C           -1.31828809        2.52424321        0.73732516
 C           -0.65554303        3.40367856       -0.12126212
 C           -2.82559514        0.64116974        0.92859837
 C           -2.43736657        1.81826680        0.28085448
 C           -3.22035858       -1.72343854        0.42772628
 C           -3.53800858       -0.32602844        0.21945197
 C           -1.29627221       -2.69109359       -0.74306341
 C           -2.58925781       -2.18283907       -0.79740637
 C            0.88982547       -2.89858923       -1.74813624
 C            1.98476954       -2.03594633       -2.14131991
 C           -0.40034605       -2.38317000       -1.77524275
 C            2.51477159        0.23777907       -2.61039349
 C            2.06274588        1.56100338       -3.01048670
 C            1.69015200       -0.86477952       -2.82165845
 C            0.92279186        1.66930665       -3.79740083
 C            0.05576830        3.46612330       -2.36187193
 C           -1.10872207        3.57873405       -1.48815156
 C           -0.02193181        2.74582875       -3.54991463
 C           -3.01964946        2.14684122       -0.94890478
 C           -2.32648691        3.03582288       -1.86767670
 C           -3.71995409       -0.17024792       -1.20638738
 C           -2.93921233       -1.22832413       -1.83536834
 C           -3.65449879        1.10350045       -1.74122034
 C           -0.67805911       -1.32761570       -2.65075968
 C            0.38714436       -0.65591978       -3.27469636
 C            0.14578323        0.47023538       -4.05278392
 C           -1.99965464       -0.88539308       -2.80284173
 C           -1.31563650        2.30314807       -4.03830359
 C           -2.48990107        2.50995261       -3.21182821
 C           -3.17511667        1.23594091       -3.10344779
 C           -1.21473594        0.87746477       -4.31989690
 C           -2.28589684        0.20828352       -3.61703397
