   70
C70 / DATE: 7/ 1/2024 / Origin: Program Fullerene / C70 from database
 C            1.08891113        0.06136013        5.38319423
 C            0.41572093       -1.12659350        4.88352612
 C            1.41040041       -1.96434834        4.26120834
 C            2.43389749        0.07291102        4.83031057
 C            2.63860009       -1.18741412        4.15089708
 C            2.59451002        1.29929182        4.07647603
 C            0.38805832        1.22134306        4.86069614
 C            1.35603887        2.05522303        4.18876401
 C           -0.71300619       -0.69960524        4.08191073
 C           -0.74975848        0.75004023        4.09562920
 C           -0.99923755       -1.33993523        2.87615824
 C            1.12563365       -2.50471385        2.94502936
 C           -0.11149929       -2.28506692        2.34141731
 C            3.01707533       -1.18802510        2.74754981
 C            2.30904731       -2.29897123        2.14033689
 C            2.93663090        1.23386299        2.66178250
 C            3.11909936        0.00700468        2.02616029
 C            1.02732746        2.54030810        2.86406253
 C            2.14608056        2.24573974        1.99197697
 C           -1.09964690        1.38954633        2.90961541
 C           -0.25211574        2.35357745        2.35004993
 C           -1.86971742       -0.69288088        2.00196249
 C           -1.95144887        0.70458084        2.04576799
 C           -2.27024721       -1.35969857        0.84803360
 C           -0.22000330       -2.59408922        0.98285457
 C           -1.42568220       -2.34319418        0.33101689
 C            2.15479780       -2.28476000        0.76618597
 C            0.95178116       -2.73565211        0.22565837
 C            2.97135233       -0.05581833        0.63776595
 C            2.85183166       -1.31770187        0.05974854
 C            1.87685931        2.09535602        0.63803737
 C            2.47945744        1.05678975       -0.06398064
 C           -0.43240301        2.64916781        1.00351621
 C            0.67737621        2.59718895        0.15191061
 C           -2.44926151        1.38716066        0.93771027
 C           -1.69548885        2.45754720        0.45420973
 C           -3.21100906       -0.74080640        0.03103439
 C           -3.31530946        0.70371139        0.08908488
 C           -3.36410232       -1.14993062       -1.35344096
 C           -1.57108103       -2.77699904       -0.98265211
 C           -2.55465625       -2.15758271       -1.85459959
 C            0.86996688       -2.84560861       -1.16535102
 C           -0.37558361       -3.03526975       -1.76293779
 C            2.84880790       -1.41510638       -1.31870950
 C            1.94200589       -2.37383599       -1.92415289
 C            2.21522643        0.93106462       -1.43371957
 C            2.71916731       -0.19275018       -2.08084028
 C            0.46336987        2.59420899       -1.22212823
 C            1.15712307        1.66192014       -2.01099722
 C           -1.90784259        2.94186334       -0.83101013
 C           -0.73963760        3.12723160       -1.66779220
 C           -3.56302279        1.19451523       -1.25460725
 C           -3.61888556        0.04211653       -2.14745734
 C           -2.95043029        2.37061921       -1.66182373
 C           -3.12442246        0.13031927       -3.44586373
 C           -1.96777944       -2.02909811       -3.18014181
 C           -0.62264120       -2.58025216       -3.12667880
 C           -2.22558137       -0.89735369       -3.94964483
 C            1.73293248       -1.93801484       -3.29164143
 C            2.21384115       -0.56537089       -3.38257184
 C            0.39703095       -1.97863048       -3.85269603
 C            0.73690734        1.38944457       -3.33024628
 C           -1.13625790       -0.23462047       -4.65574727
 C            1.16062711        0.22660761       -3.96614607
 C            0.16343693       -0.69383999       -4.48965612
 C           -1.14043376        2.94419621       -3.04073556
 C           -2.53676077        2.53044736       -3.04482272
 C           -2.66410834        1.40938748       -3.95610302
 C           -0.39676052        2.01051752       -3.85171320
 C           -1.36510823        1.19736811       -4.57064039
