   70
C70 / DATE: 7/ 1/2024 / Origin: Program Fullerene / C70 from database
 C            1.05495151       -0.17610618        4.89534999
 C            2.30789806       -0.42119370        4.20263538
 C            2.20176454       -1.70551789        3.53244992
 C            0.19462568       -1.32824105        4.67740379
 C            0.84159849       -2.18158314        3.69993925
 C           -1.13779392       -0.84253341        4.39558634
 C            0.28761240        1.01573865        4.57395181
 C           -1.09024173        0.61027988        4.36479772
 C            0.83340722        1.98212180        3.73769793
 C            2.77546902        0.54567954        3.22734859
 C            2.14529566        1.77811796        3.13162080
 C            2.71286562       -1.55366151        2.17820082
 C            3.11107031       -0.16900584        2.00445286
 C            2.03788232       -2.18254302        1.13901781
 C            0.15358118       -2.58443377        2.55920253
 C            0.90921073       -2.94235721        1.44428571
 C           -1.79142524       -1.28176378        3.17910073
 C           -1.19236138       -2.23517034        2.36751158
 C           -1.78398881        1.05062382        3.16356858
 C           -2.36848970       -0.12100367        2.53685564
 C           -0.01205025        2.62178819        2.74020133
 C           -1.20796845        2.02281346        2.35177699
 C            2.13918386        2.45699970        1.85006867
 C            0.87012206        3.15410587        1.71867456
 C            2.89345809        0.44424004        0.77147778
 C            2.66334538        1.82264771        0.72708212
 C            2.17910837       -1.68058458       -0.15520400
 C            2.57341608       -0.34733218       -0.33889605
 C            1.63426138       -2.40654744       -1.21634350
 C            0.26043375       -3.60404730        0.41437382
 C            0.77301063       -3.46328571       -0.93439817
 C           -1.73930135       -2.43049987        1.10144107
 C           -1.17494494       -3.43814664        0.33280599
 C           -2.50198681       -0.13694835        1.15349633
 C           -2.36594399       -1.34394843        0.46564053
 C           -1.58386373        2.08996519        1.01125326
 C           -2.33844480        1.05162507        0.45140405
 C            0.37415020        3.36332701        0.43811211
 C           -0.95071514        3.01135261        0.17442101
 C            2.42465981        2.42563685       -0.50108173
 C            1.29304365        3.33108705       -0.60645573
 C            2.50543157        0.24020388       -1.60500117
 C            2.44984870        1.62328483       -1.70780914
 C            1.67636104       -1.88439151       -2.50530995
 C            2.11269181       -0.51698705       -2.70136001
 C            0.58470028       -2.14642858       -3.43613657
 C           -0.33746863       -3.73742786       -1.82818404
 C           -1.55800680       -3.57551876       -1.05276061
 C           -0.47907737       -2.94451846       -3.03459897
 C           -2.55846796       -1.34627142       -0.92281603
 C           -2.31058956       -2.50443368       -1.66020722
 C           -1.82352457       -2.38625580       -3.02226185
 C           -2.63687628        1.07671378       -0.90770690
 C           -2.74704184       -0.13651115       -1.60358811
 C           -1.46130129        3.20726750       -1.10497038
 C           -2.46339393        2.27927819       -1.59053291
 C            0.81659005        3.29591598       -1.97519484
 C            1.53429812        2.23017981       -2.66380571
 C           -0.53985226        3.45525920       -2.20425097
 C            1.26348128        0.08821160       -3.71900460
 C            0.31682149       -0.92196405       -4.17237526
 C            0.86426418        1.41828715       -3.57909710
 C           -2.07634804       -1.20778735       -3.70427313
 C           -2.78263290       -0.15511501       -3.00120120
 C           -0.99831909       -0.56187431       -4.43854661
 C           -2.39978098        2.30143890       -3.03702744
 C           -1.11158625        2.86804667       -3.40025558
 C           -0.36425130        1.83478912       -4.09483336
 C           -2.54777189        1.05807368       -3.75541282
 C           -1.33410335        0.84683930       -4.53230575
