   70
C70 / DATE: 7/ 1/2024 / Origin: Program Fullerene / C70 from database
 C            1.58510113       -0.09675724        5.08789112
 C            0.75811284       -1.28155120        5.18120292
 C            1.33291914       -2.27567997        4.29835002
 C            2.58772158       -0.32658345        4.05603225
 C            2.36037047       -1.63421521        3.49266450
 C            2.55418324        0.80548115        3.16568580
 C            0.73864964        0.98323721        4.62168702
 C            1.48885374        1.68331845        3.61113707
 C           -0.55645457       -0.95387083        4.64921835
 C           -0.53803496        0.42969684        4.22284454
 C            0.23164850       -2.89572722        3.59888631
 C           -0.88814296       -1.96561916        3.67007343
 C            0.51113186       -3.44594504        2.36372580
 C            2.30054555       -1.78885630        2.10490948
 C            1.66639144       -2.93292882        1.63317848
 C            2.66814836        0.60472316        1.79052917
 C            2.42358176       -0.67107104        1.25426536
 C            2.39837885        1.71275376        0.99130635
 C            0.78983186        2.31575786        2.60486734
 C            1.54704787        2.69137335        1.51813730
 C           -1.01632799        0.75678917        2.95397494
 C           -0.52109092        1.90624844        2.32980005
 C           -1.50248832       -1.58114746        2.47908308
 C           -1.64142361       -0.21978798        2.17041436
 C           -0.55978098       -3.49753526        1.39784061
 C           -1.54614042       -2.51291102        1.44187744
 C            1.36539701       -3.05950542        0.22186200
 C            0.09356107       -3.75826822        0.13773257
 C            2.11975726       -0.79022459       -0.11961312
 C            1.59474066       -1.98457690       -0.63089100
 C            2.49659106        1.58040690       -0.38952085
 C            2.21079964        0.33212720       -0.95754422
 C            2.38871613        2.74116547       -1.15009697
 C            0.94322014        3.57953801        0.65601096
 C            1.56883781        3.80925385       -0.62190136
 C           -1.08771867        2.31661718        1.11526235
 C           -0.47641852        3.37670889        0.43684223
 C           -2.12547233        0.13357762        0.91030191
 C           -1.85825307        1.40589552        0.38628999
 C           -2.19993089       -2.18142934        0.25660697
 C           -2.63079543       -0.86561259        0.07678105
 C           -0.65752988       -3.59705569       -1.00507533
 C           -1.96240502       -2.97932142       -0.86361414
 C            0.96399838       -1.98944117       -1.87784082
 C           -0.04138559       -2.92605993       -2.12491556
 C            1.79292652        0.23528181       -2.29632220
 C            1.09039349       -0.89177162       -2.72512625
 C            2.10443300        2.65193369       -2.56204415
 C            1.83371207        1.35088638       -3.13087072
 C            0.50842950        4.05883265       -1.57430380
 C           -0.72676718        3.57213368       -0.98187363
 C            0.94106396        3.49241727       -2.83028602
 C           -2.22382948        1.70073263       -0.93156277
 C           -1.48815499        2.63378586       -1.66938948
 C           -3.25761600       -0.50318845       -1.11274401
 C           -3.11625125        0.86147697       -1.58420552
 C           -2.33306168       -2.49547838       -2.18059205
 C           -1.13284159       -2.57793447       -3.01166248
 C           -3.15595619       -1.38202475       -2.26687019
 C            0.31622617       -0.83121117       -3.89152891
 C           -0.90129336       -1.62034205       -3.98384736
 C            0.75721190        1.55383355       -4.08194999
 C            0.00216430        2.67940157       -3.56852637
 C           -1.26602044        2.43633730       -3.04212318
 C            0.04413613        0.45166357       -4.51629893
 C           -3.12006630        0.83581477       -3.03262975
 C           -3.09818357       -0.55459245       -3.45700417
 C           -1.98112122       -0.72739220       -4.36618166
 C           -2.06546882        1.53671049       -3.73791352
 C           -1.40250783        0.57970576       -4.61040269
