   70
C70 / DATE: 7/ 1/2024 / Origin: Program Fullerene / C70 from database
 C            1.34234547       -0.11465628        4.24469255
 C            2.59240992       -0.38684831        3.57262564
 C            2.50211725       -1.70530971        2.96657713
 C            0.49291099       -1.28725830        4.09864626
 C            1.16333246       -2.21304833        3.20525416
 C           -0.83748987       -0.82345828        3.74399651
 C            0.56451946        1.03661900        3.82626280
 C           -0.82654271        0.62371214        3.86238122
 C            1.01237963        1.83607726        2.76993710
 C            3.03381957        0.52934758        2.54467616
 C            2.33092301        1.70827818        2.30531496
 C            2.96870531       -1.60014197        1.59127035
 C            3.46828666       -0.25617326        1.40086283
 C            2.20893056       -2.17737661        0.58656501
 C            0.45464497       -2.72855818        2.12850071
 C            1.14350923       -2.99729204        0.94697830
 C           -1.49006194       -1.41437504        2.66293296
 C           -0.92879560       -2.54878398        2.07773177
 C           -2.46792594       -0.69194421        1.96938008
 C           -1.74893763        1.35207028        3.13626141
 C           -2.70704723        0.63974147        2.30960666
 C            0.07579385        2.58995603        2.04701830
 C           -1.28050828        2.48182037        2.35587285
 C            0.46762490        3.31943082        0.92197443
 C            2.73231341        2.44103992        1.19680693
 C            1.81158123        3.37328707        0.58090958
 C            3.39378442        0.33594801        0.14513484
 C            3.40840957        1.72788351        0.12437231
 C            2.25502047       -1.64519283       -0.70321859
 C            2.79969787       -0.36479472       -0.92071993
 C            1.60124708       -2.32691495       -1.73566966
 C            0.50615226       -3.73229618       -0.03872748
 C            0.75066124       -3.39181542       -1.42824123
 C           -1.64761045       -3.22064123        1.09919148
 C           -0.91281511       -3.99228524        0.11333485
 C           -3.03479589       -1.22039281        0.80356420
 C           -2.71002830       -2.51368567        0.40777030
 C           -3.60709885       -0.36821455       -0.13867841
 C           -3.16043624        1.56957965        1.29081812
 C           -2.27239243        2.72307073        1.32323976
 C           -3.60117189        1.06924844        0.07508455
 C           -0.48406191        3.71384605       -0.02120981
 C           -1.87365515        3.32410814        0.13875607
 C           -0.17218616        3.63034155       -1.44036522
 C            2.18297368        3.48314743       -0.82033486
 C            3.13819736        2.42530499       -1.10857491
 C            1.14045389        3.43292659       -1.83030042
 C            2.62501232        0.27298267       -2.16155404
 C            2.63546835        1.66329308       -2.22487332
 C            1.45136070        2.33712013       -2.73193397
 C            1.52313421       -1.75298252       -2.99698633
 C            1.93081580       -0.37763888       -3.17319888
 C            0.31921136       -1.94881304       -3.78696827
 C           -0.50652856       -3.54521283       -2.15128495
 C           -1.54698172       -3.79827775       -1.17739798
 C           -2.60057779       -2.81464239       -1.01416725
 C           -0.78370183       -2.68109335       -3.19739601
 C           -3.36525772       -0.60806247       -1.55259016
 C           -2.72739006       -1.78258641       -1.94379431
 C           -1.91299033       -1.76340244       -3.08116346
 C           -3.18524247        1.70294355       -1.16723515
 C           -2.33293418        2.79521017       -1.13778521
 C           -1.21820820        2.84508396       -2.06872549
 C           -2.95830786        0.65528870       -2.14638359
 C            0.43534770        1.54971938       -3.26944655
 C            0.82937401        0.33091931       -3.80953486
 C           -0.17219224       -0.63942156       -4.17868434
 C           -1.50314304       -0.48284664       -3.64175907
 C           -0.88385014        1.71192651       -2.81244325
 C           -1.83160248        0.68516569       -2.96295617
