   70
C70 / DATE: 7/ 1/2024 / Origin: Program Fullerene / C70 from database
 C            1.51320631        0.12142752        4.54001091
 C            0.72603377       -1.09395949        4.48464867
 C            1.35160630       -2.00105823        3.53829598
 C            2.61823964       -0.02884932        3.61238560
 C            2.51012828       -1.32118921        2.97296867
 C            2.62731052        1.13562584        2.76462656
 C            0.67679824        1.20749401        4.05243456
 C            1.38675539        1.85734391        2.97548055
 C           -0.64774271       -0.70893008        4.24972740
 C           -0.63364695        0.66720341        3.77361632
 C           -1.46078444       -1.61217347        3.59173337
 C            0.53719278       -2.76186529        2.70014184
 C           -0.84638614       -2.73458821        2.88790389
 C            1.05339343       -3.18620133        1.47928913
 C            2.74411525       -1.41261778        1.60261572
 C            2.20915910       -2.50076679        0.92123888
 C            3.04126544        0.99898861        1.45325365
 C            3.13899452       -0.27666534        0.87811454
 C            2.73064974        2.04877413        0.60861493
 C            0.68809338        2.26861182        1.84207503
 C            1.44570592        2.59719793        0.71694427
 C           -1.24725144        0.96874111        2.55716596
 C           -0.64342385        1.86486260        1.65995379
 C           -2.48112324       -1.09117233        2.70984843
 C           -2.29748477        0.15974851        2.12237889
 C           -1.74125616       -3.09312166        1.79270918
 C           -2.89324450       -2.20231749        1.88036580
 C            0.16004585       -3.52266413        0.38083110
 C           -1.21801608       -3.43172507        0.54329961
 C            2.03971496       -2.43299441       -0.51891680
 C            0.75925184       -3.03231034       -0.85067005
 C            3.23150583       -0.35719746       -0.51891345
 C            2.43991908       -1.29117230       -1.19177803
 C            3.38249100        2.06580565       -0.60978029
 C            3.65544963        0.77563061       -1.21395019
 C            2.90685959        2.96017862       -1.63840989
 C            0.79011356        3.06678988       -0.42052449
 C            1.53756896        3.42146096       -1.54709158
 C           -1.27405299        2.14104743        0.44124206
 C           -0.58919723        2.88299508       -0.53506475
 C           -2.91959213        0.43069834        0.90729035
 C           -2.49309001        1.51429400        0.13978643
 C           -3.61992882       -1.92427659        0.73772999
 C           -3.75866828       -0.53398426        0.33803029
 C           -2.00932006       -3.27686911       -0.59377501
 C           -3.32546580       -2.68312318       -0.46031263
 C           -0.05455988       -2.43343669       -1.80900625
 C           -1.40559783       -2.74953154       -1.81104671
 C            1.72668837       -0.90599681       -2.32838553
 C            0.39020910       -1.28025973       -2.46012397
 C            3.33923294        0.88429310       -2.62605485
 C            3.06924152        2.28151606       -2.91143771
 C            2.23391640        0.09788612       -3.13587579
 C            0.95364077        3.28050604       -2.87146271
 C            1.79711030        2.35219599       -3.60184031
 C            1.30631083        0.99698619       -3.79793785
 C           -1.20073401        3.18093530       -1.74988592
 C           -0.41243000        3.09601609       -2.96331955
 C           -3.11783144        1.73997682       -1.08347975
 C           -2.47550948        2.57907873       -2.07009911
 C           -3.99647281       -0.52719195       -1.09503745
 C           -3.54347101       -1.81125350       -1.60049480
 C           -2.35122626       -1.84283683       -2.43288294
 C           -3.64815608        0.60329283       -1.81076303
 C           -0.51978296       -0.41907651       -3.09524497
 C           -0.06315136        0.77802247       -3.66816497
 C           -0.88697073        1.90321320       -3.64066719
 C           -2.27265435        1.75968360       -3.26075657
 C           -1.89801180       -0.64664334       -2.97853672
 C           -2.77168291        0.43949729       -2.95506054
