   70
C70 / DATE: 7/ 1/2024 / Origin: Program Fullerene / C70 from database
 C            1.55886706        0.01593919        5.00984548
 C            0.78356788       -1.21097724        5.00818036
 C            1.66835840       -2.26123099        4.55837069
 C            2.71232752       -0.20195111        4.15211878
 C            2.82027963       -1.62295509        3.92802830
 C            2.57394870        0.67007772        3.00283483
 C            0.74567044        1.04567267        4.39158152
 C            1.49151549        1.59552331        3.28095075
 C           -0.44474477       -0.95834389        4.26698282
 C           -0.55303889        0.48023215        4.09502397
 C           -0.81747684       -1.79495367        3.20679195
 C            1.14856834       -3.23127433        3.62056725
 C           -0.15310712       -3.00203080        3.00866829
 C            2.88955798       -2.10748355        2.56273238
 C            2.10864228       -3.32040104        2.53626903
 C            2.68239808        0.16119983        1.70726995
 C            2.76308767       -1.22242552        1.48610335
 C            2.24816982        0.97759523        0.66522279
 C            0.76796334        2.06687443        2.19575892
 C            1.37607732        2.02922389        0.94955912
 C           -1.20622825        0.94420375        2.96549892
 C           -0.62334557        1.97976858        2.23101535
 C           -1.61540133       -1.27242789        2.18017484
 C           -2.02842609        0.05703130        2.28754096
 C           -1.70637985       -1.93084497        0.93802649
 C           -0.05763257       -3.52899883        1.66638414
 C            1.35915636       -3.59208270        1.33748159
 C           -0.91666569       -3.05876500        0.67789990
 C            2.39389283       -1.73520633        0.23074422
 C            1.75165913       -2.98367234        0.15684151
 C            2.33293182        0.51361299       -0.64138684
 C            2.33415998       -0.86690941       -0.86964135
 C            2.01619587        1.38808237       -1.68100625
 C            0.72237623        2.65637575       -0.10170262
 C            1.23145955        2.51061619       -1.39020417
 C           -1.32970964        2.47507743        1.13510894
 C           -0.61061383        3.03679059        0.07942978
 C           -2.87175668        0.59041130        1.32951281
 C           -2.58936238        1.93760474        0.87122351
 C           -2.42162433       -1.32913819       -0.11215387
 C           -3.18588443       -0.19730628        0.15768455
 C           -2.18241063       -1.70355092       -1.44269628
 C           -0.51159861       -3.29073189       -0.63100208
 C            0.91168147       -3.22472574       -0.91490147
 C           -1.20439402       -2.64315469       -1.72066254
 C            1.91457062       -1.36114141       -2.11132838
 C            1.08551676       -2.47008668       -2.13049413
 C           -0.22109027       -2.35182394       -2.75275198
 C            2.09897167        0.90607096       -2.98169987
 C            1.84113889       -0.49840090       -3.19803593
 C            1.47059892        1.62589991       -4.07362011
 C            0.70982661        3.30708110       -2.40783429
 C            0.79467595        2.86998990       -3.78610119
 C           -1.31793698        3.57339394       -0.99158908
 C           -0.61293693        3.86886525       -2.22530499
 C           -3.16644756        2.07422667       -0.45573281
 C           -3.51577801        0.73503467       -0.91003295
 C           -2.59490522        2.97757175       -1.34310528
 C           -2.59529040       -0.88552461       -2.49208393
 C           -3.27437305        0.36811454       -2.22436678
 C           -0.44266241       -1.28904319       -3.62199440
 C            0.67098239       -0.57524294       -4.06247961
 C            0.50439876        0.72551829       -4.68568449
 C           -1.70253346       -0.68529002       -3.62646856
 C           -0.56563623        2.76328572       -4.29166996
 C           -1.44047117        3.40803737       -3.32986462
 C           -2.54746775        2.66005479       -2.76021392
 C           -2.79241976        1.35577608       -3.17977077
 C           -0.79235373        1.37165543       -4.63916142
 C           -1.87108929        0.68560631       -4.09068113
