   70
C70 / DATE: 7/ 1/2024 / Origin: Program Fullerene / C70 from database
 C            1.18525427       -0.19442853        4.89740675
 C            2.38527460       -0.39765655        4.10769841
 C            2.20235376       -1.62080125        3.34145492
 C            0.31831981       -1.33947884        4.66927211
 C            0.82953583       -2.04671595        3.51089164
 C           -1.04199580       -0.85615463        4.63519976
 C            0.39048233        1.00451220        4.68785527
 C           -1.00279785        0.60057468        4.66307449
 C            0.82429849        1.97280607        3.78921006
 C            2.80975223        0.63824438        3.18204805
 C            2.11579655        1.83802066        3.12688234
 C            2.67711346       -1.37116777        1.99848342
 C            3.18359184       -0.01275275        1.93818955
 C            1.93334031       -1.82651054        0.92100144
 C            0.02889612       -2.18836366        2.37577903
 C            0.63540980       -2.30841563        1.11946070
 C           -1.88037772       -1.22938658        3.51463180
 C           -1.35209581       -1.97221399        2.45585532
 C           -1.86088050        1.07279160        3.58561110
 C           -2.67578660       -0.06007174        3.20055957
 C           -0.11342077        2.52435032        2.81967880
 C           -1.32632170        1.88988302        2.58930496
 C            2.02243199        2.52883112        1.85587054
 C            0.65674477        3.00305535        1.69531154
 C            3.05998604        0.67407238        0.72990012
 C            2.66985317        2.01833460        0.73486325
 C            2.26912561       -1.33962846       -0.33187687
 C            2.86582328       -0.07864237       -0.43254919
 C            1.65843591       -1.90109186       -1.44206952
 C           -0.15322528       -2.59168894        0.00049611
 C            0.43069706       -2.54334792       -1.27498578
 C           -2.11313761       -2.05931015        1.29095213
 C           -1.54650914       -2.60048287        0.13763089
 C           -3.29653699       -0.02959339        1.96908204
 C           -3.22571576       -1.22557650        1.15988179
 C           -1.83737192        1.81720893        1.28666532
 C           -2.98683335        1.06519744        1.06442757
 C            0.10753108        2.97998909        0.41992075
 C           -1.06732005        2.24876859        0.19413655
 C            2.34342726        2.61156350       -0.47932424
 C            1.00120178        3.15797106       -0.62586326
 C            2.91483829        0.55867219       -1.67169404
 C            2.65861261        1.92426191       -1.71636033
 C            2.07563421       -1.49055611       -2.70393962
 C            2.72683186       -0.19915335       -2.82510076
 C            1.20867431       -1.67461164       -3.85577425
 C           -0.30953955       -2.91383505       -2.39376959
 C           -0.01888973       -2.29980773       -3.67807787
 C           -2.35106960       -2.69098865       -0.99684521
 C           -1.74713852       -2.99184307       -2.27957336
 C           -3.64269166       -0.81601998       -0.16299316
 C           -3.28576457        0.59080199       -0.27476343
 C           -3.34271774       -1.65278742       -1.22053322
 C           -1.41998038        1.86981973       -1.11761689
 C           -2.49096705        0.99354406       -1.34025247
 C            0.57235267        2.91367720       -1.98296960
 C            1.73966957        2.44630092       -2.71426148
 C           -0.65844446        2.31130667       -2.20788810
 C            2.21024769        0.44733326       -4.02114671
 C            1.28686646       -0.47035002       -4.66717187
 C            1.55111348        1.73469762       -3.88848965
 C           -0.91626177        1.80547402       -3.47978208
 C            0.06629528        0.25718293       -4.95539564
 C            0.19667036        1.59055746       -4.39255573
 C           -1.23884088       -1.63769650       -4.12912178
 C           -2.30843545       -2.06436310       -3.24993080
 C           -3.02158574       -1.05141691       -2.49762410
 C           -2.55944187        0.26430592       -2.53041205
 C           -1.19139448       -0.29784927       -4.49539763
 C           -1.82899378        0.69064882       -3.63257778
