   70
C70 / DATE: 7/ 1/2024 / Origin: Program Fullerene / C70 from database
 C            1.33612222       -0.05197481        4.12813957
 C            2.65772997       -0.40365547        3.66464179
 C            2.63263854       -1.79597845        3.24315065
 C            0.51319767       -1.24937427        4.06632271
 C            1.26847337       -2.27702238        3.38058137
 C           -0.77424036       -0.86969039        3.52403121
 C            0.62074423        1.01150443        3.44435221
 C           -0.74383617        0.55870890        3.26356875
 C            1.23555179        1.71859146        2.41061789
 C            3.22958028        0.36982794        2.58576838
 C            2.60253341        1.53421980        2.14970293
 C            3.28378706       -1.88686871        1.94538960
 C            3.71833073       -0.55201396        1.57602940
 C            2.72844076       -2.70577733        0.97583332
 C            0.67477541       -2.93773843        2.31036032
 C            1.48017332       -3.38950635        1.26458439
 C           -1.38440518       -1.69131587        2.58297586
 C           -0.70327835       -2.82193959        2.10728446
 C           -2.42158579       -1.14616963        1.82603752
 C           -1.46959369        1.03696552        2.18326238
 C           -2.48557141        0.24053539        1.66189481
 C            0.42667412        2.36680153        1.46718284
 C           -0.94398722        2.06743883        1.40081277
 C            1.01345596        3.20984485        0.51866485
 C            3.14604316        2.11730116        1.01259843
 C            2.37755578        3.09697172        0.27586295
 C            3.66508651       -0.13497046        0.24857010
 C            3.77644046        1.23507383        0.03984320
 C            2.64791798       -2.22773322       -0.39516989
 C            2.94505645       -0.90067568       -0.68087969
 C            0.87543601       -3.71560756       -0.01380572
 C            1.47542534       -2.83512780       -1.00345886
 C           -1.28609639       -3.59508239        1.10508495
 C           -0.49010742       -3.93406152       -0.06334727
 C           -3.17619081       -1.98063805        1.00836468
 C           -2.62110223       -3.26437158        0.63935667
 C           -3.82840754       -1.43577943       -0.16944046
 C           -3.34250722        0.79264198        0.71930764
 C           -3.96535350       -0.05937444       -0.28018765
 C           -1.74921930        2.64323024        0.41320071
 C           -2.95969831        2.03534489        0.07310487
 C            0.21970444        3.81938554       -0.45137573
 C           -1.21192131        3.59258068       -0.44759457
 C            0.66846540        3.82023504       -1.84121847
 C            2.83636488        3.03961032       -1.09928347
 C            3.51082924        1.76759270       -1.27770233
 C            1.84745777        3.16026721       -2.14751552
 C            2.27713295       -0.27658877       -1.74068902
 C            2.70700190        0.97073377       -2.17579621
 C            1.75985469        1.86425057       -2.81509894
 C            0.64870359       -2.06723899       -1.82169139
 C            1.04164682       -0.76939610       -2.17431745
 C           -1.22445175       -3.46793391       -1.22391890
 C           -2.60916514       -3.33172036       -0.81312926
 C           -3.37383914       -2.20657491       -1.31826130
 C           -0.66443524       -2.49052348       -2.04637457
 C           -2.89947489       -1.53772652       -2.43943230
 C           -1.50855789       -1.71892061       -2.83696299
 C           -3.78879450        0.58129582       -1.57388963
 C           -3.35308765        1.94529783       -1.32668012
 C           -3.22921499       -0.13564834       -2.62600500
 C           -1.66230783        3.62369083       -1.82869255
 C           -0.48505088        3.54996653       -2.67174552
 C           -2.58766881        2.60049226       -2.28072324
 C            0.51030348        1.37367075       -3.18424002
 C            0.21914289        0.01988441       -2.98994086
 C           -1.03111231       -0.45780777       -3.36947611
 C           -2.15835736        0.45822385       -3.40942305
 C           -0.53476395        2.28094869       -3.36968939
 C           -1.91039406        1.81939825       -3.30932673
