   70
C70 / DATE: 7/ 1/2024 / Origin: Program Fullerene / C70 from database
 C            1.42972212        0.09956293        4.76189848
 C            0.65383419       -1.10921366        4.55353845
 C            1.37962657       -1.95425401        3.61898851
 C            2.62084049        0.00266941        3.93976709
 C            2.68124891       -1.34237285        3.39964695
 C            2.62323425        1.11751481        3.00683577
 C            0.64272680        1.21245973        4.26556702
 C            1.39334106        1.86174594        3.20368975
 C           -0.70021071       -0.71296225        4.21492662
 C           -0.68878209        0.71912885        3.95674544
 C           -1.41848009       -1.52912241        3.35798782
 C            0.68421222       -2.51821185        2.54620073
 C           -0.70576232       -2.54909803        2.60060070
 C            1.33311566       -2.72036499        1.32255283
 C            3.29334976       -1.51393837        2.17123164
 C            2.69191500       -2.42227723        1.21674464
 C            3.06541953        0.89152220        1.70811466
 C            3.67448297       -0.33123255        1.41589648
 C            2.53861651        1.65861490        0.66581138
 C            0.69349701        2.30061740        2.08748220
 C            1.33603701        2.35160693        0.84772076
 C           -1.31584503        1.21104372        2.81388979
 C           -0.69706005        2.25053562        2.12133515
 C           -2.37368331       -0.92092733        2.45058546
 C           -2.27273587        0.43158670        2.15321676
 C           -1.46380730       -2.79518902        1.39206549
 C           -2.57583374       -1.85483803        1.36554635
 C            0.59703410       -3.00580447        0.16226240
 C           -0.80028149       -3.07854731        0.20519230
 C            1.25160492       -3.06166797       -1.07018012
 C            3.25487632       -2.08545010       -0.07901884
 C            3.82523091       -0.74913805        0.03191860
 C            2.55582413       -2.44466896       -1.22003794
 C            3.03268426        1.46799629       -0.61766369
 C            3.60282753        0.17960639       -0.97348683
 C            2.27342207        1.94269408       -1.75448486
 C            0.63940840        2.87551363       -0.25154950
 C            1.12387953        2.69738747       -1.55470586
 C           -1.39885026        2.87612060        1.10786730
 C           -0.66122382        3.34007927       -0.05118765
 C           -2.82461181        0.90200499        0.95897037
 C           -2.60091593        2.23362110        0.61835397
 C           -3.00828263       -1.37687964        0.13600074
 C           -3.25078785       -0.00750215       -0.02246298
 C           -1.53746990       -2.98694808       -0.97480224
 C           -2.72921206       -2.15320581       -0.98455417
 C            0.51438246       -2.79647516       -2.29107693
 C           -0.86629446       -2.81246980       -2.25213587
 C            2.47903397       -1.52393686       -2.34536377
 C            2.99686069       -0.24388037       -2.22568607
 C            2.23715947        0.87682491       -2.74341240
 C            1.18612796       -1.70914684       -2.98374333
 C            1.05066363        0.66612958       -3.43845815
 C            0.44743631       -0.60218958       -3.40819810
 C            0.26139969        2.83245352       -2.64485007
 C            0.26772120        1.79185555       -3.66172707
 C           -1.59764745        3.38962793       -1.15858304
 C           -2.80726257        2.68407810       -0.74430619
 C           -1.11454100        3.25119292       -2.44986868
 C           -3.69279389        0.46239371       -1.26218718
 C           -3.47095511        1.85085177       -1.63198813
 C           -2.86275089       -1.58238334       -2.31099394
 C           -1.60634198       -1.81621526       -3.00663168
 C           -0.93734822       -0.74035875       -3.59057019
 C           -3.48438212       -0.35196081       -2.45076491
 C           -1.08058390        1.63502996       -4.15552789
 C           -1.92742075        2.58909227       -3.45589912
 C           -3.13145159        1.89349614       -3.04293044
 C           -1.69583216        0.33189633       -4.05341944
 C           -3.03335529        0.52427627       -3.51669533
