   70
C70 / DATE: 7/ 1/2024 / Origin: Program Fullerene / C70 from database
 C            1.24879558       -0.00822251        4.40011684
 C            2.51008280       -0.33694900        3.78858965
 C            2.40697562       -1.69400764        3.26655936
 C            0.40508193       -1.19017325        4.31168870
 C            1.01488091       -2.07161713        3.34029120
 C           -0.94285019       -0.72399396        4.05747517
 C            0.48268538        1.08767206        3.84634774
 C           -0.89952739        0.73162131        4.08301948
 C            0.83823028        1.62977716        2.60668104
 C            2.97785092        0.48389095        2.69359035
 C            2.10647123        1.38199693        2.06463393
 C            3.05750399       -1.69336920        1.97256726
 C            3.74572216       -0.42083669        1.86798637
 C            2.37218637       -2.16272168        0.85392934
 C            0.32240283       -2.33362496        2.16460416
 C            1.01763335       -2.52177132        0.96023446
 C           -1.70236510       -1.34686100        3.06975103
 C           -1.06761308       -2.19613014        2.15231861
 C           -2.90760575       -0.74127740        2.72115551
 C           -1.87947910        1.42432794        3.39631124
 C           -3.05002631        0.68309115        2.96068554
 C           -0.15313568        2.21822326        1.81651088
 C           -1.47023810        2.27256436        2.28761647
 C            0.09963144        2.50433228        0.47129973
 C            2.39271174        1.76697009        0.74953996
 C            1.37710993        2.29276258       -0.06571616
 C            4.09908894        0.01452129        0.60939095
 C            3.57518888        1.29360609        0.17286733
 C            2.91344438       -1.87686256       -0.40120794
 C            3.89279323       -0.88869077       -0.50665785
 C            2.25614819       -2.31278496       -1.54581808
 C            0.32124099       -2.95033912       -0.17626283
 C            0.92966159       -2.88475686       -1.42407445
 C           -1.78066456       -2.70423328        1.07464931
 C           -1.06237292       -3.08439440       -0.12832935
 C           -3.52917358       -1.03597573        1.44135472
 C           -3.02394064       -2.06969340        0.67203597
 C           -3.53010124        1.29166896        1.73578132
 C           -2.56294439        2.29335796        1.33119252
 C           -3.84844136        0.22900658        0.79797034
 C           -0.97593504        2.80833581       -0.36820642
 C           -2.25278654        2.39057416       -0.01292784
 C           -0.74325577        3.14639582       -1.69091599
 C            1.61134116        2.51406860       -1.43566151
 C            0.55521338        2.87526603       -2.26231996
 C            3.73217586        1.31324914       -1.26404076
 C            3.94446275       -0.06143398       -1.69719464
 C            2.66592595        1.86088062       -2.05996296
 C            2.28612408       -1.50466653       -2.75915292
 C            3.02442928       -0.33534941       -2.78519914
 C            2.35668167        0.90980214       -3.11569954
 C            0.14911725       -2.45813969       -2.57708851
 C            0.95221807       -1.50370006       -3.32559084
 C           -1.85862740       -2.67280049       -1.27628130
 C           -3.00046370       -1.92760195       -0.77291921
 C           -1.22029051       -2.23963354       -2.43779246
 C           -3.51851220        0.41335006       -0.54207549
 C           -2.99886638        1.65168536       -0.93048007
 C           -3.31685602       -0.70609611       -1.35741868
 C           -1.74451549        2.78891634       -2.68545096
 C           -2.84279187        1.92839290       -2.28210254
 C            0.34378210        2.09266042       -3.47005851
 C            1.05735878        0.90380188       -3.61912058
 C            0.36715649       -0.31512707       -3.75568886
 C           -1.06276294        2.15036412       -3.79995721
 C           -1.83448644       -1.26451938       -3.22598521
 C           -2.96666488       -0.52126544       -2.68992444
 C           -2.90571427        0.82708163       -3.22066759
 C           -1.00953434       -0.32867010       -3.97656558
 C           -1.74696627        0.91407474       -4.09423009
