   70
C70 / DATE: 7/ 1/2024 / Origin: Program Fullerene / C70 from database
 C            1.16326895        0.15664980        4.84795339
 C            2.42751581        0.04388291        4.14984759
 C            2.53466836       -1.32619042        3.69477535
 C            0.36596580       -1.01513823        4.50511641
 C            1.19825969       -1.89662027        3.71752640
 C           -0.87597756       -0.54935536        3.92974552
 C            0.34753699        1.32308555        4.59435071
 C           -0.98692706        0.85578163        4.25761179
 C            0.74087271        2.23538932        3.53582523
 C            2.67927820        0.89839380        2.99890642
 C            1.74875896        1.86788918        2.63844990
 C            3.24170673       -1.31108743        2.42828487
 C            3.26745058        0.06966866        1.96238086
 C            2.92006143       -2.29776863        1.51106401
 C            0.70234877       -2.43965941        2.53520264
 C            1.63607811       -2.96781671        1.65423312
 C           -1.22121728       -0.95725532        2.64565335
 C           -0.53711006       -2.01227038        2.02987823
 C           -2.06985535       -0.15455310        1.88407390
 C           -1.50565898        1.75407058        3.24452469
 C           -0.49887624        2.77561153        3.01444059
 C           -2.15429196        1.22227112        2.13650322
 C           -0.47348431        3.38712164        1.77276537
 C            1.64587810        2.25434923        1.29970791
 C            0.72358267        3.23900328        0.96347013
 C            2.97370188        0.33402202        0.62532784
 C            2.19549909        1.45160573        0.29069464
 C            3.07804875       -2.00660302        0.10016616
 C            3.16049673       -0.68364521       -0.31331387
 C            1.20919057       -3.37789500        0.33836338
 C            2.19749804       -2.90872995       -0.61947910
 C           -0.96026591       -2.44491268        0.76275549
 C           -0.12755624       -3.27823027       -0.00273383
 C           -2.60567767       -0.66594770        0.70641553
 C           -2.09242757       -1.85266076        0.17891844
 C           -3.37384987        0.17552329       -0.09562009
 C           -2.43408660        2.08594056        1.07970740
 C           -1.60112276        3.18196908        0.87833087
 C           -3.17335919        1.60653412        0.00931651
 C            0.32807517        3.40613825       -0.42000076
 C           -1.12583313        3.46913123       -0.46190226
 C            1.93756593        1.73587684       -1.05904411
 C            0.99046484        2.70336342       -1.41580634
 C            2.95373953       -0.41180195       -1.65623560
 C            2.45828784        0.89411022       -2.03839902
 C            1.76810989       -2.56254466       -1.89948961
 C            2.28030427       -1.40472994       -2.48656412
 C           -0.42445003       -3.50342999       -1.33879874
 C            0.54247685       -3.06651367       -2.33568383
 C           -2.57478302       -2.31882411       -1.04378590
 C           -1.74732455       -3.20319173       -1.82957644
 C           -3.57953748       -0.13908148       -1.49818885
 C           -3.20424672       -1.38892458       -1.96620593
 C           -2.90463647        2.11075228       -1.33048081
 C           -1.78479017        2.91654235       -1.55548630
 C           -3.26263608        1.05448904       -2.27027687
 C            0.37909790        2.65010641       -2.66837416
 C           -1.06728814        2.78824973       -2.74198999
 C            1.75960488        0.73550322       -3.30023754
 C            1.50273632       -0.68705167       -3.48592672
 C            0.78546333        1.65523526       -3.64555715
 C           -0.19228830       -2.38710918       -3.39004819
 C           -1.60704852       -2.62420689       -3.15560074
 C           -2.52869929       -1.50845995       -3.25089023
 C            0.22507710       -1.13251969       -3.82222216
 C           -2.58153100        0.94059977       -3.47514607
 C           -1.54905142        1.90806269       -3.78982712
 C           -0.40615786        1.18920979       -4.33001429
 C           -2.11733195       -0.36333593       -3.92127176
 C           -0.71929207       -0.22806827       -4.30810940
