   70
C70 / DATE: 7/ 1/2024 / Origin: Program Fullerene / C70 from database
 C            1.65429853       -0.02769669        5.34712092
 C            0.80623243       -1.20192026        5.38178824
 C            1.35469719       -2.14861890        4.43638110
 C            2.60266268       -0.18279410        4.25128363
 C            2.37946987       -1.47480278        3.65243513
 C            2.49086795        0.98579817        3.40979039
 C            0.80842678        1.09583593        5.01122957
 C            1.54081611        1.88679425        4.04984137
 C           -0.51141906       -0.82651290        4.88513102
 C           -0.49152561        0.58713137        4.60002977
 C            0.23297093       -2.70750727        3.71647593
 C           -0.84647736       -1.73355316        3.81197375
 C            0.50005424       -3.21865145        2.46475831
 C            2.31262888       -1.59130212        2.26425117
 C            1.69182474       -2.73369484        1.77964064
 C            2.43946976        0.83532966        2.01950765
 C            2.34973666       -0.44385767        1.44626887
 C            2.04601503        1.94088323        1.26853073
 C            0.79173112        2.68989678        3.21896160
 C            1.31431116        2.94568021        1.90254682
 C           -1.02057628        1.05820296        3.39788032
 C           -0.60280415        2.32165419        3.00019885
 C           -1.39817233       -1.23085143        2.62989196
 C           -1.47212149        0.15570918        2.41530727
 C           -0.55111003       -3.15020199        1.48032820
 C           -1.44813303       -2.08747714        1.53094012
 C            1.43812481       -2.85386930        0.36384427
 C            0.10783925       -3.41401462        0.22697221
 C            2.10139066       -0.56267681        0.06177920
 C            1.78708159       -1.81364215       -0.48857109
 C            1.97290256        1.85102053       -0.12115460
 C            1.97360067        0.59066276       -0.73214748
 C            1.41889397        2.93384322       -0.79812529
 C            0.20375473        3.52894414        1.19607977
 C           -0.96035809        2.81092873        1.68574535
 C            0.33533618        3.66288552       -0.16304670
 C           -1.83105310        0.63122898        1.13853014
 C           -1.64240965        1.97806344        0.80305909
 C           -1.98379598       -1.64165219        0.32566150
 C           -2.20537954       -0.27441452        0.13876782
 C           -0.57157279       -3.09925851       -0.92647973
 C           -1.79560437       -2.44818769       -0.79761753
 C            1.27217568       -1.87751493       -1.78343558
 C            0.20707726       -2.75709605       -2.01580968
 C            1.67423498        0.47152344       -2.10544901
 C            1.47155243       -0.80547302       -2.64677915
 C            1.04151965        2.78927575       -2.18475347
 C            1.35526109        1.61824939       -2.85748387
 C           -0.82388422        3.37166930       -0.96731817
 C           -1.69139046        2.36649829       -0.53900972
 C           -0.31147341        3.31907120       -2.31269104
 C           -2.54170676        0.19327190       -1.13972468
 C           -2.24988872        1.51460623       -1.49278921
 C           -2.46104018       -2.11121893       -1.96837683
 C           -2.88693377       -0.73303538       -2.12756219
 C           -0.42906050       -2.75892456       -3.24454977
 C           -1.86273971       -2.53072971       -3.22881249
 C            1.11301820       -0.96288220       -3.98519063
 C            0.13870078       -1.98199345       -4.32292963
 C            0.81638637        1.48988094       -4.13575255
 C            0.79372460        0.19929269       -4.77846046
 C           -1.12401652        2.77707398       -3.28543480
 C           -2.18913438        1.88805485       -2.84289849
 C           -0.46339922        2.12786209       -4.39732157
 C           -2.75615787       -0.38957457       -3.53659294
 C           -2.16266593       -1.52587871       -4.22728273
 C           -0.96082545       -1.33878832       -5.02384924
 C           -0.53833427        0.00708374       -5.34213527
 C           -2.38904980        0.90021707       -3.88875400
 C           -1.36457547        1.11614420       -4.90464313
