   70
C70 / DATE: 7/ 1/2024 / Origin: Program Fullerene / C70 from database
 C            1.18786105       -0.06574108        4.51387028
 C            2.50051933       -0.27966526        3.94285775
 C            2.49100137       -1.60240193        3.33966405
 C            0.38334675       -1.23806761        4.19700354
 C            1.11620799       -2.03256369        3.24059799
 C           -0.92414947       -0.77703587        3.82058414
 C            0.42623157        1.10796697        4.12364250
 C           -0.93843278        0.67321532        3.90952411
 C            0.97897372        2.03689320        3.25488375
 C            3.00446218        0.65276665        2.94826051
 C            2.27675386        1.79111487        2.63342307
 C            3.24583391       -1.52491981        2.11937223
 C            3.58395699       -0.13276831        1.87461364
 C            2.81631596       -2.25420600        1.02769388
 C            0.57361105       -2.25251428        1.97013802
 C            1.43827701       -2.52434193        0.90120569
 C           -1.55805325       -1.35403410        2.73031565
 C           -0.77197110       -1.93299660        1.71554548
 C           -2.76886059       -0.77108867        2.39399876
 C           -1.76658997        1.35203383        3.02024987
 C           -2.90787768        0.65704089        2.63629505
 C            0.12555138        2.67156817        2.26602445
 C           -1.20343282        2.27211702        2.11751477
 C            2.19378283        2.21243626        1.24612281
 C            0.92551337        2.89942440        1.07614508
 C            3.52677596        0.31961962        0.55303963
 C            2.66049464        1.37358782        0.23193497
 C            3.54156040       -2.01400105       -0.12322607
 C            3.83166696       -0.62131958       -0.42793883
 C            3.13336377       -2.66480442       -1.33711023
 C            0.89998832       -2.80037601       -0.36267591
 C            1.76916877       -3.13241003       -1.40604188
 C           -1.27009271       -2.01975071        0.40209440
 C           -0.43146687       -2.45054639       -0.64142112
 C           -3.36552074       -1.05448576        1.11489423
 C           -2.59677753       -1.65283476        0.12758088
 C           -3.75387354        1.20318132        1.60306805
 C           -4.18606932        0.09532422        0.76861244
 C           -1.84695764        2.54873856        0.90162436
 C           -3.18664555        2.20264819        0.73185338
 C            0.30263557        2.85045366       -0.15797122
 C           -1.08888374        2.92426077       -0.21319837
 C            2.04571908        1.43043783       -1.02825630
 C            1.00928078        2.34101055       -1.24548305
 C            3.41333657       -0.39491069       -1.79525778
 C            3.31636868       -1.70612632       -2.41132805
 C            2.42675141        0.55151206       -2.05055193
 C            1.35506094       -2.92662509       -2.77393423
 C            2.25617540       -1.94314489       -3.36199185
 C           -0.89786982       -2.44309353       -1.96981068
 C            0.00945655       -2.47346663       -3.01642824
 C           -3.01629546       -1.51279519       -1.18872577
 C           -2.11638698       -1.85504439       -2.25924225
 C           -4.18651040        0.55847272       -0.60624089
 C           -3.69360290        1.93004442       -0.60224746
 C           -3.74833126       -0.31802185       -1.58876086
 C           -1.70733267        3.06274754       -1.45330555
 C           -2.97863477        2.40349296       -1.69228162
 C            0.46954286        2.46645535       -2.51757517
 C           -0.90654372        2.90982785       -2.65388136
 C            1.64138285        0.43366088       -3.20685336
 C            1.44213199       -0.82060803       -3.77783796
 C            0.08401279       -1.31413620       -3.89077310
 C            0.68092940        1.39957939       -3.47337684
 C           -2.15141886       -0.78197575       -3.24384412
 C           -3.11790972        0.20752777       -2.78841326
 C           -2.81493939        1.56061890       -2.86688753
 C           -1.59310794        1.97185933       -3.52955120
 C           -0.95885917       -0.39180291       -3.85820761
 C           -0.63060565        0.96298603       -3.93361782
