   70
C70 / DATE: 7/ 1/2024 / Origin: Program Fullerene / C70 from database
 C            1.45637202       -0.13001670        4.31728959
 C            2.60661679       -0.35611665        3.45448469
 C            2.33906821       -1.56964471        2.70191206
 C            0.59123610       -1.28695947        4.20849719
 C            1.29173872       -2.27972045        3.41615607
 C           -0.71025806       -0.83604254        3.74047473
 C            0.63973407        1.05044106        4.09657282
 C           -0.62390703        0.59838159        3.53557864
 C            1.24788955        2.16803131        3.54926577
 C            3.15329664        0.73256352        2.79547014
 C            2.62975600        2.05080256        3.10731260
 C            3.31340517        0.66585408        1.35123121
 C            2.30576010       -1.52751216        1.30427779
 C            2.71201519       -0.36687238        0.64109821
 C            1.60027922       -2.51766076        0.60838273
 C            0.51963457       -3.17520712        2.70305792
 C            0.91199062       -3.48366727        1.34368610
 C           -1.36817173       -1.62270633        2.79994125
 C           -0.91047478       -2.92899937        2.63600435
 C           -2.05589229       -1.00511580        1.74580187
 C           -1.07368575        1.13692319        2.33552105
 C           -1.86324912        0.36289247        1.49153465
 C            0.54012946        2.92313915        2.52970486
 C           -0.55565833        2.35035053        1.87592471
 C            2.78439180        2.87372432        1.92507661
 C            3.22799049        2.01952436        0.83429070
 C            1.55063801        3.61581140        1.74845555
 C            2.67566207        2.23725017       -0.42420014
 C            2.31379405       -0.15154652       -0.67418316
 C            2.34067334        1.13887643       -1.22854462
 C            1.32574803       -2.34976178       -0.75888447
 C            1.84129373       -1.22683960       -1.41858249
 C            0.38122844       -3.17516034       -1.39953628
 C           -0.23788745       -4.13293160        0.75643487
 C           -1.40136168       -3.71813029        1.52870530
 C           -0.53028189       -3.87967742       -0.63197260
 C           -2.74157787       -1.79763586        0.81257935
 C           -2.33561283       -3.11075040        0.60758445
 C           -1.93125549       -3.50818479       -0.72899358
 C           -3.42978790       -1.18549899       -0.22701959
 C           -2.42160903        0.95376465        0.36341285
 C           -3.38486498        0.25626649       -0.35059392
 C           -0.92717439        2.83425996        0.61487664
 C           -1.83778847        2.10923581       -0.17132848
 C            1.22214946        3.99393166        0.46174005
 C            2.01709105        3.44911211       -0.62525689
 C           -0.15314490        3.84045452        0.03515480
 C            1.23712279        3.64086894       -1.82718584
 C           -0.11860381        3.96537157       -1.40423927
 C            1.80841920        1.35892099       -2.50817199
 C            1.14427803        2.55069762       -2.77221946
 C            1.65954341       -1.06736627       -2.78450368
 C            1.48412757        0.27088142       -3.30824015
 C           -0.04164819       -2.86159466       -2.68256097
 C            0.72205746       -1.92583918       -3.47138714
 C           -2.33553608       -2.72194740       -1.80619200
 C           -3.30015827       -1.74179137       -1.56852835
 C           -1.45698864       -2.58599571       -2.88808560
 C           -3.59252414        0.57657100       -1.74410529
 C           -3.47712090       -0.65362921       -2.51114403
 C           -1.99732103        2.41562186       -1.53679233
 C           -1.01855772        3.15167995       -2.18224754
 C           -0.23788767        2.48853448       -3.21227171
 C           -2.72724862        1.56011206       -2.34836937
 C            0.21816314        0.29306750       -4.03126625
 C           -0.21440680       -1.08155856       -4.19614614
 C           -1.55836301       -1.45077665       -3.79635187
 C           -2.48303319       -0.44884558       -3.54662563
 C           -0.71456297        1.28820921       -3.73566035
 C           -2.04568947        0.93957592       -3.47610099
