   70
C70 / DATE: 7/ 1/2024 / Origin: Program Fullerene / C70 from database
 C            1.33606596       -0.06957537        4.49255504
 C            2.58192437       -0.26989083        3.77743944
 C            2.50816722       -1.55880628        3.10793106
 C            0.48431899       -1.21960268        4.23110568
 C            1.16737419       -2.07437339        3.27636181
 C           -0.84094184       -0.72738756        3.89282715
 C            0.55411138        1.12592432        4.23182972
 C           -0.83072923        0.71414861        4.06956104
 C            1.07411906        2.12866671        3.41832038
 C            3.00202763        0.71423622        2.79545240
 C            2.31404933        1.91369563        2.68104122
 C            3.01041869       -1.39059688        1.76041926
 C            3.38286472        0.00045447        1.58990440
 C            2.35586610       -2.01651295        0.70607931
 C            0.46914461       -2.49540654        2.15134594
 C            1.14231617       -2.67955930        0.93815728
 C           -1.49701306       -1.27475950        2.79226307
 C           -0.91555034       -2.36200427        2.14124772
 C           -2.48897097       -0.53526151        2.13969359
 C           -1.69108859        1.48460579        3.30142395
 C           -2.65282551        0.81598215        2.44282167
 C            0.18214042        2.90495111        2.57107821
 C           -1.17681451        2.63133116        2.56432305
 C            2.16287123        2.51864947        1.37003169
 C            0.86124521        3.15241166        1.31164635
 C            3.17467194        0.57555620        0.33985101
 C            2.62004090        1.85834652        0.23410801
 C            2.65251633       -1.58304561       -0.58298697
 C            3.11616550       -0.27474047       -0.76549234
 C            2.13661384       -2.30082511       -1.65302863
 C            0.44308615       -3.23633557       -0.14013635
 C            0.96808906       -3.13312106       -1.42978063
 C           -1.63123395       -3.01059149        1.14998748
 C           -0.90230858       -3.56585738        0.02395670
 C           -3.09713811       -1.05912858        0.99533876
 C           -2.82737460       -2.37524845        0.63142007
 C           -3.67590138       -0.19591862        0.06159496
 C           -2.98784158        1.74451645        1.38112293
 C           -1.90992255        2.71451288        1.31225999
 C           -3.50622537        1.24138539        0.20120785
 C            0.16020702        3.09370190        0.11130469
 C           -1.22709182        2.88743062        0.10833798
 C            2.13813712        2.27799574       -1.00697351
 C            0.88392109        2.90871386       -1.06570301
 C            3.11569461        0.30042437       -2.03225242
 C            2.68094577        1.67771968       -2.14042365
 C            1.99126741       -1.66770952       -2.95119445
 C            2.57149422       -0.42849515       -3.16646868
 C            0.07623536       -2.95361401       -2.57053508
 C            0.62091550       -1.88461255       -3.38376693
 C           -1.79116735       -3.53984130       -1.12472215
 C           -2.97253101       -2.77899073       -0.75684904
 C           -1.29335890       -3.01509094       -2.38008998
 C           -3.60546504       -0.50482283       -1.36058882
 C           -3.18114550       -1.75840091       -1.76578407
 C           -2.10271810       -1.85921810       -2.73625937
 C           -3.00031096        1.74601642       -1.06467633
 C           -1.88508304        2.58363813       -1.08999346
 C           -3.09044668        0.66977557       -2.03899288
 C            0.20562245        3.04024820       -2.27183213
 C           -1.20698400        2.72574707       -2.29780691
 C            2.05338219        1.84768631       -3.43435663
 C            1.87186540        0.52579896       -4.01053152
 C            0.78536636        2.53504736       -3.50049659
 C           -0.17343458       -0.78741210       -3.71334062
 C           -1.48025559       -0.70118723       -3.20971755
 C           -2.08072603        0.54887072       -2.98864107
 C           -1.39994701        1.71306344       -3.32578035
 C            0.44974905        0.33763679       -4.24564387
 C           -0.18246674        1.62905494       -4.10050489
