   70
C70 / DATE: 7/ 1/2024 / Origin: Program Fullerene / C70 from database
 C            1.26728063        0.09246388        4.41675026
 C            2.50978871       -0.26305633        3.77061819
 C            2.46898819       -1.68969065        3.49533725
 C            0.43394381       -1.09861195        4.47470675
 C            1.10929586       -2.14460426        3.72786924
 C           -0.91492408       -0.72164456        4.09016491
 C            0.47143229        1.15072400        3.83584855
 C           -0.90712887        0.69581619        3.77124780
 C            0.96632021        1.89779379        2.77031714
 C            2.86736940        0.40928194        2.53501533
 C            2.03442397        1.39990176        2.00865827
 C            3.06068221       -1.90273807        2.18983415
 C            3.40749846       -0.60013519        1.64144058
 C            2.48860719       -2.84447108        1.34994753
 C            0.42480226       -2.80602276        2.70809170
 C            1.13355837       -3.30931635        1.61611838
 C           -1.64216711       -1.58147929        3.28823991
 C           -0.96257992       -2.68729999        2.62355223
 C           -2.58668293       -1.02175242        2.34150294
 C           -1.71369171        1.19803594        2.74845237
 C           -2.49356730        0.32355945        1.97907481
 C            0.06866396        2.77025369        2.17340295
 C           -1.34584375        2.42606772        2.21219840
 C            0.34977779        3.29645692        0.85532486
 C            2.10329489        1.66833982        0.63454295
 C            1.30517558        2.66945702        0.06673690
 C            3.30418350       -0.39222841        0.27144068
 C            2.91317755        0.86999537       -0.17710253
 C            2.61745578       -2.66543459       -0.08306912
 C            3.17776300       -1.49506612       -0.58145583
 C            0.46101763       -3.47952895        0.33463656
 C            1.41255546       -3.17619404       -0.71477783
 C           -1.62578964       -2.89857639        1.34548517
 C           -2.78630756       -2.02511069        1.31306942
 C           -0.85755329       -3.07302354        0.19647982
 C           -3.28276321       -1.62341396        0.08860750
 C           -3.00704735        0.73081211        0.73799114
 C           -3.58865035       -0.21925592       -0.10403797
 C           -1.94163544        2.88003497        0.97484881
 C           -0.92838602        3.65322072        0.27157656
 C           -2.76951775        2.02375352        0.25817744
 C           -1.01884798        3.77769542       -1.10377017
 C            1.25727065        2.83605926       -1.32254467
 C            0.11524822        3.37372571       -1.91943529
 C            3.04612110        1.17160905       -1.52392372
 C            2.13426130        2.12107174       -2.12937729
 C            3.05604481       -1.27320551       -1.94835516
 C            3.22332395        0.07459370       -2.45248652
 C            0.97541391       -2.57055623       -1.88749317
 C            1.91766484       -1.86371126       -2.63695919
 C           -1.29737573       -2.54527661       -1.02048708
 C           -2.60500509       -2.06826262       -1.11440115
 C           -0.38700760       -2.30250201       -2.05992236
 C           -3.61239453        0.00636118       -1.53764558
 C           -2.96520273       -1.13647807       -2.16809282
 C           -3.06121360        2.34045624       -1.06938772
 C           -2.22545927        3.30740454       -1.75999711
 C           -3.37777867        1.28514601       -2.01590944
 C           -0.40059932        2.75333220       -3.13025374
 C           -1.84904452        2.73825886       -3.04304875
 C           -2.54708673        1.47774772       -3.19574826
 C            1.63004667        1.53444056       -3.36299581
 C            2.29521050        0.26047219       -3.55466305
 C            1.48854900       -0.93778657       -3.67232494
 C            0.27426143        1.65446898       -3.65387156
 C           -0.80757957       -1.63073538       -3.20845603
 C           -2.08570706       -0.94091744       -3.22083253
 C           -1.86490244        0.39947425       -3.74378051
 C            0.13632698       -0.80542353       -3.94000139
 C           -0.44735896        0.52522433       -4.06069922
