   70
C70 / DATE: 7/ 1/2024 / Origin: Program Fullerene / C70 from database
 C            1.34387507       -0.22367178        4.41301232
 C            2.59526421       -0.54305467        3.76720027
 C            2.51859685       -1.91353825        3.28566175
 C            0.49450053       -1.40525024        4.35453419
 C            1.19209132       -2.42118759        3.58901137
 C           -0.82190930       -0.96912135        3.91865241
 C            0.56507877        0.89106858        3.90655386
 C           -0.82262927        0.48143325        3.99569793
 C            0.99400689        1.58599103        2.77175919
 C            3.02948175        0.28116599        2.65955016
 C            2.30385426        1.41493946        2.29645749
 C            2.98442677       -1.92603345        1.90599701
 C            3.49722868       -0.60469232        1.60738819
 C            2.23896691       -2.58566844        0.93837336
 C            0.50170694       -3.11292468        2.60479663
 C            1.15208231       -3.36863167        1.33136909
 C           -1.43218757       -1.59243652        2.82811999
 C           -0.88351043       -2.76531748        2.31330661
 C           -2.37268879       -0.88111986        2.07562754
 C           -1.75808463        1.17319228        3.25240066
 C           -2.71495196        0.40739305        2.48243514
 C            0.04301710        2.27022716        1.99962868
 C           -1.29612872        2.23250816        2.37345105
 C            0.38677705        2.78839423        0.75102393
 C            2.68244336        2.03687579        1.11299917
 C            1.72920460        2.86333907        0.40316973
 C            3.45462198       -0.13899692        0.29910312
 C            3.38491912        1.24088725        0.11862369
 C            2.35407543       -2.18983610       -0.39548680
 C            2.99412995       -0.98351037       -0.71677351
 C            1.60665172       -2.86505077       -1.35987416
 C            0.09735434       -3.66003406        0.37839660
 C           -1.13574704       -3.11776096        0.92655524
 C            0.35771519       -3.49348990       -0.96937072
 C           -2.69525474       -1.29943646        0.77774422
 C           -1.92008340       -2.27320209        0.14868083
 C           -3.59826481       -0.56015602        0.01684547
 C           -3.28416176        1.32903748        1.52249634
 C           -2.31860347        2.41033872        1.35881939
 C           -3.90144981        0.81108352        0.39797897
 C           -0.59963655        3.02621406       -0.21687923
 C           -1.94937881        2.80475711        0.07596038
 C           -0.22568312        3.32267107       -1.52802523
 C            2.11380824        2.86252961       -0.99787854
 C            3.07827608        1.78961729       -1.18992892
 C            1.14263597        3.09874286       -1.95768819
 C            2.96772398       -0.50759838       -2.02854367
 C            2.94923023        0.92618029       -2.26841710
 C            1.40171532       -2.27671618       -2.67167691
 C            2.10422082       -1.13257042       -3.01559646
 C           -0.67794525       -2.93352549       -1.81575396
 C           -1.73874092       -2.23699736       -1.23901355
 C           -0.01690738       -2.38198803       -2.98368287
 C           -3.50015600       -0.60913945       -1.43148788
 C           -2.46288591       -1.32927417       -2.01514695
 C           -3.89962056        1.61491586       -0.80798879
 C           -2.86110412        2.61611698       -0.96409668
 C           -3.81513642        0.71430015       -1.94201105
 C           -1.09370908        2.93296876       -2.62405198
 C           -2.39271861        2.54026379       -2.33756764
 C           -2.92613660        1.31570419       -2.92005718
 C            1.09937865        2.28410972       -3.16302417
 C            1.95862495        1.19824829       -3.29793835
 C            1.44867567       -0.07785619       -3.77401711
 C           -0.29378942        2.16348025       -3.56551992
 C           -0.64840010       -1.36918110       -3.68988105
 C           -1.95461310       -0.91019980       -3.24731844
 C           -2.08897548        0.48206587       -3.64909662
 C            0.10821843       -0.20383731       -4.12288101
 C           -0.77338628        0.95224470       -4.05270731
