   70
C70 / DATE: 7/ 1/2024 / Origin: Program Fullerene / C70 from database
 C            1.69836157       -0.05008175        4.60503181
 C            0.89231199       -1.24924884        4.71215224
 C            1.45059030       -2.24536855        3.81245267
 C            2.65380391       -0.25708947        3.53018939
 C            2.45463740       -1.58523405        2.99019013
 C            2.53817212        0.86174885        2.62524759
 C            0.81960734        1.03747826        4.20778517
 C            1.39389939        1.65625689        3.03634030
 C           -0.50038309       -0.86564921        4.55289797
 C           -0.52819773        0.52078098        4.10785807
 C           -1.37168762       -1.77388739        3.96870373
 C            0.58763499       -3.15384975        3.21666491
 C           -0.84223443       -3.02928026        3.45666847
 C            0.76604258       -3.48184669        1.81367995
 C            2.42004610       -1.74609826        1.60488667
 C            1.76767225       -2.86221378        1.07215920
 C            2.69772702        0.64227653        1.26464225
 C            2.75638382       -0.66309251        0.77067864
 C            2.23690573        1.63056927        0.41205031
 C            0.54874988        2.11818127        2.03507003
 C            1.11815079        2.37334759        0.79686028
 C           -1.29998083        0.86663196        2.99895641
 C           -0.81539363        1.81515672        2.07747009
 C           -2.35362972       -1.29433926        3.01303128
 C           -2.38250674        0.05156539        2.65733465
 C           -1.53622317       -3.33915590        2.21588973
 C           -0.54895192       -3.62174600        1.20643447
 C           -2.47997925       -2.28420679        1.95438572
 C           -0.72726667       -3.13443498       -0.08503860
 C            1.69791371       -3.00329605       -0.30506412
 C            0.38618068       -3.19814894       -0.90760369
 C            2.79337290       -0.84219409       -0.61844785
 C            2.41462220       -2.07313984       -1.14640831
 C            2.55964627        1.54368206       -0.93262938
 C            2.82290677        0.27514045       -1.46828771
 C            2.16201150        2.59904607       -1.74855290
 C            0.34439040        2.99025473       -0.17692287
 C            0.96229334        3.32596507       -1.37907394
 C           -1.61877881        2.20512483        0.99712452
 C           -1.04551238        2.86387942       -0.10244409
 C           -3.14765440        0.38582985        1.55076051
 C           -2.87237902        1.62127803        0.85307636
 C           -2.65051196       -1.82344676        0.65379612
 C           -1.71297239       -2.16184570       -0.34190293
 C           -3.35304710       -0.63543925        0.53411723
 C           -1.68424122       -1.43121185       -1.55086127
 C            0.38318046       -2.51252415       -2.17738655
 C            1.75620297       -2.11980711       -2.43850654
 C           -0.63912276       -1.61953450       -2.47079399
 C            2.73415962        0.05865121       -2.84719451
 C            1.97912870       -1.08370121       -3.32168489
 C            2.18262918        2.46214564       -3.18820131
 C            2.42758921        1.15529695       -3.74825721
 C            0.17370594        3.52735153       -2.58131273
 C            0.90612406        2.93853990       -3.69510006
 C           -1.83075910        3.12216602       -1.23087306
 C           -1.20161198        3.36862488       -2.51911443
 C           -3.43137763        1.45798968       -0.47414854
 C           -3.42033867        0.02808708       -0.74333784
 C           -2.66013889       -0.45504661       -1.80062370
 C           -3.01267064        2.31183715       -1.47590354
 C           -1.85073478        2.51047835       -3.49692626
 C           -2.57087324        0.34344390       -2.93765885
 C           -2.88142290        1.75874247       -2.80989336
 C           -0.43843684       -0.70849792       -3.51219312
 C            0.84252967       -0.54129280       -4.04006442
 C            1.25011396        0.76876815       -4.51413527
 C            0.29633931        1.85991448       -4.45841084
 C           -1.42235190        0.22414767       -3.81232034
 C           -1.04436665        1.56557096       -4.24730787
