   70
C70 / DATE: 7/ 1/2024 / Origin: Program Fullerene / C70 from database
 C            1.17934626       -0.07055880        4.66659882
 C            2.42553673       -0.40280217        4.01755476
 C            2.28285082       -1.74330167        3.46517723
 C            0.33222792       -1.24904505        4.58530469
 C            0.87762330       -2.07773443        3.53107945
 C           -1.02635648       -0.78331124        4.45445194
 C            0.40271291        1.03329726        4.14189224
 C           -0.98319323        0.66998572        4.34158103
 C            0.76555213        1.61580643        2.92939904
 C            2.88993417        0.43987029        2.93439434
 C            2.05175295        1.42033737        2.39975373
 C            2.92552682       -1.73518495        2.16802849
 C            3.57900901       -0.44821682        2.02316679
 C            2.24696883       -2.24496664        1.06877005
 C            0.17129702       -2.23027965        2.33647442
 C            0.86947787       -2.50024650        1.15824795
 C           -1.81292804       -1.25447566        3.33432357
 C           -1.19480376       -1.92283237        2.27209429
 C           -1.95133123        1.04071289        3.32475579
 C           -2.70802416       -0.16181097        3.02912913
 C           -0.21606098        2.24564221        2.15924337
 C           -1.55472421        1.85038400        2.26000314
 C            0.17746967        3.03913586        1.09387824
 C            2.36642149        1.94512748        1.14200268
 C            1.51211876        2.86898104        0.55219806
 C            3.83480077        0.00586068        0.74018753
 C            3.32040834        1.30845941        0.34813830
 C            2.81223830       -2.03018870       -0.18640359
 C            3.59742197       -0.89502099       -0.37789487
 C            2.21474528       -2.61950546       -1.29071165
 C            0.15661849       -2.78932543       -0.00187466
 C            0.87764421       -3.15396954       -1.13256407
 C           -1.85302837       -1.94984407        1.03475688
 C           -1.16375201       -2.33942987       -0.11928357
 C           -3.39028933       -0.21046160        1.83267421
 C           -3.07396171       -1.28733906        0.91087073
 C           -2.38094174        1.90625938        1.13081353
 C           -3.42914678        0.99184909        1.02680486
 C           -0.73602354        3.24540802       -0.01402730
 C           -1.98445469        2.63339211        0.00174765
 C            1.42136215        2.94179954       -0.89955849
 C            0.04128558        3.24446011       -1.24411285
 C            3.15646713        1.29300021       -1.09784139
 C            3.37688312       -0.07209998       -1.55513392
 C            2.15367773        2.05626014       -1.68567313
 C            2.24884412       -1.92393368       -2.56726600
 C            2.60805336       -0.57711195       -2.59832510
 C            0.24060143       -3.12755890       -2.42981364
 C            1.11149865       -2.39336353       -3.33748028
 C           -1.74203543       -2.13384577       -1.38569076
 C           -1.08334356       -2.56013075       -2.53603712
 C           -3.51699277       -0.84521046       -0.39737060
 C           -3.87020014        0.56579037       -0.28171358
 C           -2.84144450       -1.28394458       -1.52783997
 C           -2.65453589        2.46366835       -1.21218517
 C           -3.63974920        1.40279795       -1.35813432
 C           -0.51828931        2.71079426       -2.40027038
 C           -1.89999194        2.54490607       -2.45531208
 C            1.65456460        1.66877936       -2.92500995
 C            1.90495677        0.31719900       -3.40552845
 C            0.30113394        2.03949159       -3.30910779
 C            0.29557864       -1.43260535       -4.05280211
 C           -1.09098303       -1.70429604       -3.70921917
 C            0.73296211       -0.11801168       -4.15351673
 C           -0.23608935        0.96623457       -4.13685339
 C           -3.02298498       -0.58610106       -2.72234864
 C           -3.45093993        0.79867436       -2.66265613
 C           -2.47359519        1.59068151       -3.38731052
 C           -2.02521383       -0.68138821       -3.77295655
 C           -1.59216405        0.67440697       -4.08566902
