   70
C70 / DATE: 7/ 1/2024 / Origin: Program Fullerene / C70 from database
 C            1.27628512        0.05246897        5.57183070
 C            0.36777927       -1.06830694        5.73301471
 C            1.00529836       -2.24589024        5.16576899
 C            2.42394058       -0.41409481        4.81433737
 C            2.25061742       -1.82508613        4.55132814
 C            2.57943897        0.46831471        3.67750109
 C            0.60574853        1.06194774        4.76587961
 C            1.50043277        1.43770493        3.69174671
 C           -0.81669292       -0.78634721        4.94328500
 C           -0.69949312        0.55972599        4.39966968
 C            0.15050603       -2.74918094        4.10364375
 C           -1.00439837       -1.88185301        4.00746277
 C            2.22791437       -2.26106260        3.16658481
 C            0.96205953       -2.92024203        2.90898366
 C            2.92521385       -0.05923793        2.44199713
 C            2.71222285       -1.42261613        2.17361546
 C            2.85114928        0.81279199        1.36423018
 C            0.95340666        1.79195181        2.45861773
 C            1.78870660        1.72585684        1.34377872
 C           -1.13481855        0.76802564        3.09442054
 C           -0.42323319        1.63401143        2.25757603
 C           -1.44996491       -1.56290411        2.73572939
 C           -1.85226549       -0.25408530        2.49069740
 C            0.36096322       -2.70581985        1.66432604
 C           -0.97140769       -2.29731533        1.64937000
 C            2.42850633       -1.78241721        0.85760359
 C            1.17089088       -2.33763357        0.58309492
 C            3.33562293        0.33448958        0.16063781
 C            3.07420723       -1.06022679       -0.12916367
 C            3.07444268        1.08124443       -1.04631572
 C            1.29123460        2.16528688        0.11737412
 C            2.10976643        2.08113297       -1.01011198
 C           -0.94180162        1.85738311        0.97579441
 C           -0.09320870        2.29894420       -0.03872612
 C           -2.41401067       -0.00721319        1.25223773
 C           -2.11773405        1.19804372        0.61551465
 C           -1.58116679       -2.04628585        0.42586916
 C           -2.60990287       -1.11636602        0.44794848
 C            0.56128728       -2.11410243       -0.66440593
 C           -0.83289990       -2.15469450       -0.75078072
 C            2.59441136       -1.12965138       -1.48977092
 C            3.02904163        0.10252650       -2.11741210
 C            1.30292283       -1.58660470       -1.72697096
 C            2.43280855        0.47498403       -3.30443712
 C            1.64330804        2.57369455       -2.22149394
 C            2.01591220        1.85908786       -3.43177374
 C           -0.62520330        2.54692528       -1.30566385
 C            0.23790135        2.91452805       -2.33607043
 C           -2.65853345        1.39773586       -0.65876994
 C           -1.93000814        2.13694724       -1.60325058
 C           -3.33354071       -0.93106423       -0.70577058
 C           -3.57324913        0.43751379       -1.09826176
 C           -1.47256262       -1.85292457       -1.96197890
 C           -2.84118908       -1.57649112       -1.89808911
 C            0.65584390       -1.17596585       -2.89601983
 C            1.32823513       -0.33256657       -3.78803089
 C           -0.71691036       -1.38008587       -3.04623999
 C            0.88550507        1.89009187       -4.33688368
 C           -0.14965376        2.70610998       -3.72303468
 C            0.57020766        0.51382436       -4.69190622
 C           -2.40975403        2.26853679       -2.91248296
 C           -1.46837763        2.39878447       -4.01165303
 C           -3.96790180        0.38067306       -2.48897685
 C           -3.51529380       -0.91257632       -2.99575425
 C           -3.47607100        1.40002797       -3.38078326
 C           -1.34848492       -0.90500650       -4.20416369
 C           -0.75278537        0.19792823       -4.94049049
 C           -1.71673911        1.28461437       -4.91299837
 C           -2.78046509       -0.67438886       -4.21041327
 C           -3.00401734        0.71644889       -4.57242093
