   70
C70 / DATE: 7/ 1/2024 / Origin: Program Fullerene / C70 from database
 C            1.30763510       -0.05761553        4.28896881
 C            2.57405375       -0.33532389        3.66298351
 C            2.51940621       -1.69048903        3.13119019
 C            0.47387242       -1.24246014        4.14463106
 C            1.14459275       -2.12863794        3.21283897
 C           -0.86589078       -0.77880339        3.82091167
 C            0.52774032        1.05831013        3.79919943
 C           -0.85101579        0.66331868        3.99182234
 C            0.88182253        1.69563455        2.60328738
 C            3.00537897        0.51615171        2.57625559
 C            2.10903092        1.41899365        1.99067618
 C            3.16129923       -1.65904908        1.83214524
 C            3.77834447       -0.35065973        1.71396857
 C            2.49912668       -2.18110387        0.72228325
 C            0.47994433       -2.48527852        2.04726927
 C            1.19301881       -2.67861205        0.85704426
 C           -1.51668449       -1.31417194        2.70998521
 C           -0.90565757       -2.35078322        2.00245095
 C           -2.53304833       -0.57235115        2.09868910
 C           -1.82045709        1.40322724        3.34919125
 C           -2.83491211        0.69184282        2.59564342
 C           -0.10978587        2.38539867        1.89957631
 C           -1.37766341        2.47444961        2.48045675
 C            0.05798792        2.65286497        0.53073790
 C            2.33871354        1.82589181        0.67318936
 C            1.29431737        2.38524694       -0.08325071
 C            4.07730431        0.10947767        0.44978732
 C            3.50218052        1.37650617        0.04086612
 C            2.98706527       -1.85116893       -0.54393509
 C            3.88699221       -0.79289097       -0.67057697
 C            2.33852083       -2.33133801       -1.67647429
 C            0.51864296       -3.17967074       -0.26124021
 C            1.09083020       -3.05429176       -1.52577233
 C           -1.59648143       -2.94737658        0.96137355
 C           -0.84029886       -3.47360601       -0.16021099
 C           -3.01752783       -0.96624531        0.84682816
 C           -2.76358021       -2.26806077        0.43013847
 C           -3.44412991       -0.00303275       -0.08432421
 C           -3.43322753        1.66991103        1.71423745
 C           -2.52146745        2.80805745        1.66499878
 C           -3.72817954        1.29087371        0.34672293
 C           -1.00888659        3.17622208       -0.22287032
 C           -2.30613973        3.12334155        0.27733557
 C           -3.32145201        2.40976836       -0.47945846
 C           -0.87731884        3.30956681       -1.59741476
 C            1.45510204        2.58613329       -1.46645243
 C            0.35053710        2.90917398       -2.23693696
 C            3.59216793        1.40679823       -1.40033968
 C            3.83539112        0.04404517       -1.85409285
 C            2.47098336        1.92109391       -2.13891254
 C            2.21797606       -1.48580320       -2.85881428
 C            2.86839489       -0.26500213       -2.89159888
 C            2.09464157        0.93696614       -3.14068908
 C            0.25456766       -2.71984046       -2.67156465
 C            0.84151960       -1.55765891       -3.30990346
 C           -1.68157380       -3.36478616       -1.33891166
 C           -2.85935041       -2.59327065       -0.97542152
 C           -1.12141156       -2.79024091       -2.54757120
 C           -3.33231539       -0.24208045       -1.46233084
 C           -2.99330964       -1.50962097       -1.92154865
 C           -1.92080349       -1.62861755       -2.89809697
 C           -3.09867970        2.19232589       -1.82818327
 C           -1.97216903        2.86683213       -2.44713632
 C           -3.11811188        0.82705564       -2.33146559
 C            0.01352750        2.02600455       -3.34444055
 C            0.74822205        0.85494996       -3.49219965
 C            0.09053111       -0.38806832       -3.44129771
 C           -1.31223247       -0.46267302       -3.36500911
 C           -1.42214245        1.98257471       -3.46011582
 C           -2.07547843        0.70167482       -3.33912242
