   70
C70 / DATE: 7/ 1/2024 / Origin: Program Fullerene / C70 from database
 C            1.22583164        0.13969230        4.89477317
 C            2.46199427        0.00811295        4.15111928
 C            2.56726598       -1.37879846        3.74992371
 C            0.42289973       -1.04600241        4.62712339
 C            1.24864906       -1.97669748        3.88234577
 C           -0.82303022       -0.60648425        4.03170284
 C            0.39366255        1.29109957        4.63052031
 C           -0.93876571        0.80742763        4.29936539
 C            0.77300479        2.19641944        3.56244737
 C            2.66280020        0.82040488        2.95906424
 C            1.74381063        1.81131143        2.63221287
 C            3.19603371       -1.40802827        2.44318220
 C            3.15038086       -0.05313157        1.90752692
 C            2.85695205       -2.45038654        1.59936402
 C            0.71397598       -2.62258168        2.77033190
 C            1.61755136       -3.16828647        1.86185227
 C           -1.15356821       -1.08215362        2.76879932
 C           -0.56388884       -2.26472449        2.32081900
 C           -1.86938387       -0.27429051        1.87039211
 C           -1.44853423        1.66549038        3.24987891
 C           -0.47781385        2.73137532        3.07285758
 C           -2.01472028        1.09840684        2.10861520
 C           -0.46882064        3.37950796        1.85573967
 C            1.58080682        2.17489091        1.29243012
 C            0.69410709        3.20495210        1.00082496
 C            2.71694821        0.14900492        0.59521285
 C            1.96989461        1.28894759        0.27700493
 C            2.89073199       -2.21646094        0.17353068
 C            2.77096940       -0.91304254       -0.30969651
 C            1.13901836       -3.69105284        0.59342554
 C            2.08659363       -3.26331138       -0.42507688
 C           -1.09438837       -2.88694863        1.19800278
 C           -0.22196326       -3.65278605        0.32288549
 C           -2.26762690       -0.80339123        0.63783011
 C           -2.02659122       -2.14801192        0.36509907
 C           -2.62629994        0.05242141       -0.40939207
 C           -2.26524505        1.94644273        1.03109836
 C           -1.60457401        3.17531560        0.98782609
 C           -2.76776669        1.42339713       -0.15921694
 C            0.24069779        3.40062557       -0.36463771
 C           -1.18283491        3.68766456       -0.29456186
 C            1.53144841        1.47806252       -1.04308646
 C            0.69649850        2.55647296       -1.37057850
 C            2.33565204       -0.72517919       -1.62070860
 C            1.85001948        0.52306927       -2.01534306
 C            1.65469405       -3.07691291       -1.72579149
 C            2.03859466       -1.84869872       -2.39285394
 C           -0.67573228       -3.45696747       -1.04368973
 C           -1.82749658       -2.57054684       -1.00989280
 C            0.25775868       -3.31072206       -2.06062178
 C           -2.64567541       -0.43814100       -1.72510527
 C           -2.00745734       -1.64168399       -2.02681004
 C           -3.08131470        0.36812522       -2.76940743
 C           -2.93451581        2.30679831       -1.22525099
 C           -1.95942505        3.37080532       -1.38911838
 C           -3.21272345        1.78879069       -2.54882136
 C            0.01030437        2.55942527       -2.58831389
 C           -1.28507975        3.08463555       -2.63562509
 C           -2.29390125        2.45096923       -3.46329030
 C            1.41126092        0.69739129       -3.32986949
 C            0.47473756        1.76468820       -3.63040887
 C            1.15435417       -1.71558742       -3.52832091
 C           -0.05793556       -2.44518397       -3.18416800
 C           -1.27291940       -1.76509895       -3.21352287
 C            1.01946181       -0.46867096       -4.11187183
 C           -2.46503661        0.20033824       -4.07021099
 C           -1.87609392        1.47838336       -4.44696286
 C           -0.45533193        1.26714062       -4.63466418
 C           -1.44123737       -0.81582619       -4.21859020
 C           -0.25167273       -0.16221633       -4.73964713
