   70
C70 / DATE: 7/ 1/2024 / Origin: Program Fullerene / C70 from database
 C            1.59137168       -0.09586009        4.68213681
 C            0.78060747       -1.27423701        4.44878519
 C            1.38025757       -2.02953675        3.36200168
 C            2.67361223       -0.10791855        3.71443833
 C            2.51454503       -1.26672818        2.86867691
 C            2.69525443        1.18348180        3.07569353
 C            0.76350499        1.06520808        4.39896656
 C            1.47047716        1.88025820        3.44181069
 C           -0.59279715       -0.83717936        4.29751077
 C           -0.55681979        0.59561577        4.04704884
 C           -1.42834229       -1.61550599        3.51364615
 C            0.53678268       -2.64072306        2.43770153
 C           -0.83601703       -2.66511639        2.69854161
 C            0.98237300       -2.81071413        1.12484978
 C            2.65766533       -1.11471254        1.49539250
 C            2.07780258       -2.06986886        0.66792935
 C            3.09412329        1.27280015        1.74934768
 C            3.07938190        0.11187724        0.95034373
 C            2.82541341        2.49162942        1.14756910
 C            0.76057846        2.50989355        2.42342961
 C            1.53602191        3.10087989        1.43013804
 C           -1.17641518        1.09327987        2.90163802
 C           -0.52063345        2.03814611        2.08845657
 C           -2.41631747       -0.95558063        2.67988730
 C           -2.28381244        0.40349088        2.40439795
 C           -1.77083124       -2.94522186        1.62009551
 C           -2.74680696       -1.86715065        1.59430756
 C            0.15297177       -3.45999735        0.21233358
 C           -1.28321344       -3.43879860        0.42380325
 C            0.39125023       -3.32592423       -1.21461866
 C            2.42732527       -2.08677154       -0.67374804
 C            1.53064641       -2.67799182       -1.65084038
 C            3.24239779        0.21773305       -0.44470161
 C            3.00338963       -0.88993688       -1.25459024
 C            3.10138094        2.65692635       -0.25543899
 C            3.29649489        1.46835364       -1.05413933
 C            0.93684578        3.44366753        0.15657340
 C            1.99288229        3.40031564       -0.82877371
 C           -1.09619916        2.40640910        0.86429253
 C           -0.30076694        2.90693740       -0.16498785
 C           -2.97924086        0.92382018        1.32326518
 C           -2.39822242        2.02620708        0.58394986
 C           -3.16534108       -1.33385291        0.37714570
 C           -3.55318558        0.00478940        0.35455738
 C           -1.90263128       -3.01594434       -0.81812891
 C           -0.88041951       -3.03621614       -1.85344265
 C           -2.84706587       -1.98968966       -0.81988531
 C           -0.95836845       -2.10425211       -2.88552676
 C            1.44327813       -1.77391045       -2.78132046
 C            2.40970279       -0.70346025       -2.57396172
 C            0.20938325       -1.47705829       -3.35484386
 C            2.59115153        1.68011927       -2.30803872
 C            1.69589518        2.81069187       -2.10989253
 C            2.12433088        0.58308676       -3.03398258
 C           -0.62889252        2.64204786       -1.50646571
 C            0.37414672        2.65979090       -2.49449279
 C           -2.81949916        1.90363390       -0.80016588
 C           -3.65092782        0.71110478       -0.90548937
 C           -1.92718260        2.21096370       -1.82586798
 C           -3.14896465       -1.39029555       -2.04248637
 C           -2.21401613       -1.55399192       -3.14521587
 C           -3.63360524       -0.01934914       -2.08040332
 C           -2.22332881        1.76066839       -3.11313169
 C           -2.34886119       -0.40096378       -4.00858428
 C           -3.09233836        0.60813726       -3.27147158
 C            0.13509223       -0.34057248       -4.15618033
 C            1.02658801        0.77294378       -3.87736664
 C            0.18389886        1.93770150       -3.65972924
 C           -1.15109421        0.22321167       -4.51725654
 C           -1.15666739        1.60920953       -4.07549227
