   70
C70 / DATE: 7/ 1/2024 / Origin: Program Fullerene / C70 from database
 C            1.45638763        0.13244890        4.57384330
 C            0.66073649       -1.07942544        4.53382707
 C            1.34247617       -2.03958270        3.68464346
 C            2.58550070       -0.05058924        3.67893289
 C            2.54055399       -1.39688279        3.15948623
 C            2.57465298        1.03370218        2.73101269
 C            0.64135282        1.21096216        4.03993368
 C            1.36978413        1.81459271        2.94703209
 C           -0.69584767       -0.70537626        4.19689787
 C           -0.67791253        0.68493357        3.76511506
 C           -1.45664159       -1.60671526        3.47407833
 C            0.59181117       -2.85519390        2.83648736
 C           -0.80285165       -2.74280303        2.82869869
 C            1.23267097       -3.42135916        1.73445172
 C            2.88439476       -1.62581919        1.83043891
 C            2.49441066       -2.84846358        1.29779153
 C            2.93625084        0.78225494        1.41708420
 C            3.12928843       -0.53728079        0.96803330
 C            2.60350502        1.75372911        0.48745664
 C            0.66956567        2.23607941        1.82107930
 C            1.39681355        2.44583237        0.65340073
 C           -1.30018055        1.03105847        2.56602902
 C           -0.69979886        1.96596313        1.71213963
 C           -2.43607648       -1.09105896        2.53774934
 C           -2.32697877        0.22242611        2.07993580
 C           -1.53916145       -3.02298459        1.60281188
 C           -2.69865990       -2.14890903        1.58237239
 C            0.46650910       -3.73504113        0.53737985
 C           -0.83310099       -3.26121873        0.42823683
 C            2.62160062       -3.08673806       -0.12081637
 C            1.35719984       -3.62355002       -0.59915495
 C            3.34957299       -0.76313119       -0.40681600
 C            2.97680248       -1.97894355       -0.97419578
 C            3.18214915        1.65433023       -0.76171673
 C            3.43913890        0.32572404       -1.27476219
 C            2.67073524        2.46360077       -1.84590510
 C            0.74140574        2.99590449       -0.44597621
 C            1.43680121        3.18976414       -1.63630736
 C           -1.36378431        2.33750630        0.53909057
 C           -0.65389222        3.02413886       -0.45619885
 C           -2.96818147        0.57476495        0.89446366
 C           -2.60147924        1.75211964        0.24358634
 C           -3.25052082       -1.79805703        0.36502182
 C           -3.63246587       -0.41511289        0.17090070
 C           -1.26629399       -2.67965977       -0.77008153
 C           -2.56892478       -2.20241569       -0.85318526
 C            0.93698043       -2.82358849       -1.73233125
 C            2.04760164       -1.97057861       -2.09505313
 C           -0.33864692       -2.28406229       -1.73925890
 C            2.75230263        0.23754419       -2.55419852
 C            2.46165737        1.58500056       -2.98678979
 C            1.79626166       -0.75764204       -2.72477112
 C            0.71453646        3.11497088       -2.88949606
 C            1.14502409        1.87270292       -3.51054545
 C           -1.31414337        3.47956914       -1.59688306
 C           -0.63945066        3.39638113       -2.88484065
 C           -3.27367453        2.09926580       -0.92838285
 C           -2.69514848        3.09589551       -1.80689579
 C           -3.79710522       -0.24937483       -1.25657495
 C           -2.90521530       -1.22240731       -1.87468862
 C           -3.81395641        1.03640892       -1.76483399
 C           -0.59446344       -1.16509086       -2.53396610
 C            0.47283348       -0.39509841       -3.02862166
 C            0.21983617        0.83847928       -3.64740616
 C           -1.91715968       -0.77319152       -2.75012008
 C           -1.48089944        2.58300396       -3.73855749
 C           -2.81251012        2.60130270       -3.16951535
 C           -3.27028741        1.22953755       -3.09210626
 C           -1.08866993        1.19783937       -3.95475604
 C           -2.18502107        0.35760795       -3.51373327
