   70
C70 / DATE: 7/ 1/2024 / Origin: Program Fullerene / C70 from database
 C            1.31394303        0.11125691        4.77859916
 C            2.50533225       -0.13201552        3.99410163
 C            2.48569578       -1.52399796        3.57019945
 C            0.48598059       -1.08311531        4.71421463
 C            1.20953113       -2.09316551        3.95807071
 C           -0.84014457       -0.68352294        4.26738264
 C            0.48134523        1.24428389        4.43595020
 C           -0.88117929        0.76290245        4.26782946
 C            0.80351639        2.03627706        3.26087995
 C            2.76217276        0.67982719        2.81430288
 C            1.88169912        1.69423997        2.43872399
 C            2.88031389       -1.56205897        2.17188263
 C            3.26449304       -0.21391241        1.79240148
 C            2.15120336       -2.32815359        1.26151721
 C            0.51193272       -2.86044735        3.03581397
 C            1.08156905       -3.10111371        1.71601716
 C           -1.43097854       -1.36893164        3.21150868
 C           -0.90310943       -2.60382222        2.83901597
 C           -2.26901232       -0.68607694        2.32290100
 C           -1.44503436        1.43694006        3.11376916
 C           -0.45980230        2.38806066        2.63924913
 C           -2.14794641        0.69978968        2.16854269
 C           -0.45331068        2.70496383        1.29110326
 C            1.84980861        2.09688877        1.10001233
 C            0.77622851        2.87549720        0.67074580
 C            3.11894212        0.14667984        0.46478131
 C            2.61695523        1.40877526        0.14988249
 C            2.22943535       -2.00021060       -0.09574558
 C            2.96586229       -0.86998832       -0.46330015
 C            1.29149725       -2.53301398       -0.98756274
 C           -0.02665837       -3.38254960        0.81536896
 C           -1.26115393       -3.17794745        1.55587923
 C            0.05890637       -2.96037806       -0.50706545
 C           -2.93385911       -1.41545373        1.34209435
 C           -2.36026571       -2.67240997        0.88692817
 C           -3.45549488       -0.72983655        0.17159603
 C           -2.35293055        1.27018738        0.91023116
 C           -1.54579711        2.34166934        0.50410573
 C           -3.18061535        0.62348797       -0.00692763
 C           -1.58752738        2.79507466       -0.81625487
 C            0.78563758        3.38376777       -0.61679716
 C           -0.47745332        3.46552416       -1.33046605
 C            2.53559623        1.77733114       -1.19891970
 C            1.78276484        2.89510913       -1.54885108
 C            3.09721002       -0.53923404       -1.80156644
 C            2.88812026        0.84704704       -2.18384273
 C            1.42701426       -2.29310154       -2.34727478
 C            2.45916923       -1.37969387       -2.79176211
 C            0.23239062       -2.03140546       -3.12925437
 C           -1.10677123       -2.66637782       -1.22648746
 C           -2.33104796       -2.62622741       -0.56198018
 C           -3.31407569       -1.64005449       -0.95582421
 C           -1.01540559       -2.14224412       -2.52175408
 C           -3.24476231       -1.11018509       -2.23236345
 C           -2.07813564       -1.40684632       -3.05160909
 C           -3.38284547        1.18385921       -1.26366376
 C           -2.55043957        2.29367832       -1.68907508
 C           -3.55153560        0.29718099       -2.40229341
 C           -1.79199789       -0.23230394       -3.86340849
 C           -2.22605866        2.09818915       -3.09914566
 C           -2.73789963        0.80333688       -3.49168856
 C           -0.18111992        3.37087419       -2.74744348
 C            1.21517277        2.99108195       -2.88324579
 C           -0.97546345        2.47510262       -3.56302959
 C            2.21645988        0.85191136       -3.47882231
 C            1.89395587       -0.51929222       -3.81574404
 C            0.50162362       -0.88670458       -3.98841096
 C           -0.46440204        0.10920482       -4.10992051
 C            1.28404211        1.83799038       -3.75766417
 C           -0.08128711        1.45780197       -4.10643749
