   70
C70 / DATE: 7/ 1/2024 / Origin: Program Fullerene / C70 from database
 C            1.26122042       -0.11058964        4.46127592
 C            2.52917661       -0.31988931        3.79044418
 C            2.47027552       -1.61649889        3.13486666
 C            0.42415077       -1.26909575        4.19078609
 C            1.10988476       -2.09912922        3.22335791
 C           -0.90065361       -0.79056734        3.86052711
 C            0.48594825        1.07873581        4.15368223
 C           -0.88506104        0.66432671        3.91834893
 C            1.03481837        2.07207957        3.35716653
 C            2.97985488        0.65071119        2.80785317
 C            2.28756304        1.84205320        2.64558631
 C            3.05398693       -1.47286200        1.81999978
 C            3.41062970       -0.08215815        1.63082262
 C            2.46927417       -2.12319698        0.74417061
 C            0.44686096       -2.43947633        2.04852589
 C            1.18407376       -2.66880297        0.87828602
 C           -1.60492109       -1.39993900        2.82903596
 C           -0.94148338       -2.29325824        1.97666388
 C           -2.74327995       -0.74191858        2.37562647
 C           -1.69286928        1.37375353        3.02760698
 C           -2.79784395        0.70521373        2.49979181
 C            0.16372062        2.83084836        2.48054849
 C           -1.19079924        2.51397852        2.38055849
 C            2.15233272        2.40374006        1.31315622
 C            0.90326946        3.13700228        1.26514500
 C            3.22658640        0.45653890        0.35941716
 C            2.53422208        1.66446307        0.20276611
 C            2.89981055       -1.75197657       -0.52249961
 C            3.28555254       -0.41752050       -0.72577359
 C            2.49123865       -2.54400517       -1.58536206
 C            0.53922147       -3.18830921       -0.25321236
 C            1.21430406       -3.22015316       -1.47393398
 C           -1.61353269       -2.82055994        0.88048946
 C           -0.85024232       -3.27259550       -0.26938747
 C           -3.34506455       -1.10896047        1.10603472
 C           -2.81216966       -2.16313914        0.38706333
 C           -3.48526499        1.22528415        1.33402267
 C           -3.69983826        0.11688075        0.41200227
 C           -1.89800641        3.08276964        1.32126383
 C           -3.11965265        2.46328928        0.83722893
 C            0.19929649        3.22597537        0.06787605
 C           -1.15083420        3.54564538        0.16142213
 C            1.95846147        1.97122186       -1.03070723
 C            0.68734744        2.56148473       -1.07097966
 C            3.23991872        0.14326218       -1.99744677
 C            2.47512726        1.36244444       -2.16943651
 C            2.63855963       -2.07272941       -2.94723140
 C            3.02187568       -0.69616701       -3.15829876
 C            0.47425527       -2.95384490       -2.69928881
 C            1.37690140       -2.30062515       -3.63249183
 C           -1.57173172       -2.87295043       -1.46922847
 C           -2.69331565       -2.04650924       -1.05456166
 C           -0.85084776       -2.53590490       -2.61047381
 C           -3.39414230        0.26767708       -0.94143244
 C           -2.90628674       -0.81939237       -1.67679484
 C           -3.19630775        2.69189859       -0.59395519
 C           -1.99973734        3.41458792       -0.99783744
 C           -3.33356303        1.55090000       -1.48271165
 C           -0.12814320        2.38247537       -2.20313095
 C           -1.46816579        2.75779707       -2.16982497
 C           -2.46741256        1.80523062       -2.61703520
 C            1.62077842        1.18385950       -3.32590751
 C            1.99755211       -0.06451219       -3.97223753
 C            0.96953024       -1.05321673       -4.24901065
 C            0.27802028        1.51387415       -3.21628713
 C           -1.30660176       -1.49527710       -3.42308300
 C           -2.36585352       -0.61450663       -2.94416824
 C           -2.04839198        0.73463547       -3.38548837
 C           -0.35970737       -0.66895007       -4.16248642
 C           -0.67387538        0.71454974       -3.85171441
