   70
C70 / DATE: 7/ 1/2024 / Origin: Program Fullerene / C70 from database
 C            1.56134630        0.06181609        4.83441205
 C            0.77533557       -1.15219539        4.69812387
 C            1.62832387       -2.14161935        4.08889839
 C            2.71598693       -0.06719917        3.96240709
 C            2.84080679       -1.46558751        3.63582287
 C            2.56503058        0.88729626        2.87766405
 C            0.75901881        1.15483122        4.32696440
 C            1.49582085        1.79258892        3.25019931
 C           -0.46648355       -0.80552536        4.03243034
 C           -0.56261480        0.64072477        4.01155889
 C           -0.87814042       -1.50666713        2.90194984
 C            1.12037851       -2.89260780        2.95771197
 C           -0.12958071       -2.59220775        2.41207849
 C            3.02721548       -1.83456576        2.24909290
 C            2.24095006       -3.03518239        2.05566743
 C            2.64224076        0.46129590        1.55004188
 C            3.00255790       -0.85999269        1.24674168
 C            2.07263058        1.26721962        0.55657324
 C            0.74236787        2.36160204        2.23619484
 C            1.22520828        2.31834365        0.92716366
 C           -1.22573889        1.24295001        2.94974796
 C           -0.63599359        2.37960276        2.41084500
 C           -1.85519732       -0.92532319        2.09383417
 C           -2.02508481        0.46435448        2.10490556
 C           -2.40803084       -1.68008530        1.07199163
 C           -0.43321398       -3.11956123        1.15142777
 C           -1.64732214       -2.80056183        0.55307002
 C            1.97995241       -3.41958016        0.75693797
 C            0.59686043       -3.62589029        0.35574078
 C            2.89231409       -1.30140719       -0.07057215
 C            2.58474475       -2.64419121       -0.30446691
 C            2.15489013        0.87811529       -0.78084329
 C            2.68764267       -0.37923786       -1.09466696
 C            1.55598912        1.67155930       -1.76800424
 C            0.49478768        3.00462585       -0.04797959
 C            0.67844413        2.69430910       -1.40097238
 C           -1.37528024        3.11301292        1.50858757
 C           -0.67126528        3.65443849        0.36853261
 C           -2.66867245        1.10630244        1.03590601
 C           -2.56871436        2.49447696        0.96940120
 C           -3.04361240       -1.01113580       -0.04705413
 C           -3.02691591        0.37814901       -0.10831713
 C           -1.74158479       -2.76246428       -0.89865251
 C           -2.75947986       -1.78768628       -1.24225942
 C            0.54753619       -3.43877569       -1.09020944
 C            1.87167871       -3.00609573       -1.51202590
 C           -0.58168403       -2.85998806       -1.66493574
 C            2.59917927       -0.87058426       -2.39478180
 C            1.98088245       -2.16683361       -2.60232564
 C            1.62501246        1.29630361       -3.10963968
 C            2.13662038       -0.00780833       -3.45691923
 C            0.47850228        1.53039627       -3.96789524
 C           -0.15788757        3.25155861       -2.37554810
 C           -0.43340891        2.49862933       -3.58431732
 C           -1.69974253        4.00679318       -0.58623956
 C           -2.86020618        3.18239871       -0.27126375
 C           -1.41625596        3.85284996       -1.99079639
 C           -3.16474781        1.00997756       -1.35433772
 C           -1.85484888        2.17655568       -3.56361940
 C           -3.16212907        2.39796054       -1.44482749
 C           -2.46868982        3.02574048       -2.55707445
 C           -2.68576500       -1.14030978       -2.46211103
 C           -3.00304226        0.27368827       -2.52797534
 C           -2.25105188        0.84641494       -3.63542764
 C           -0.45753828       -2.12217437       -2.84894821
 C            0.80426476       -1.92966292       -3.41134495
 C            1.07639187       -0.71725036       -4.16185682
 C           -0.00131592        0.22441620       -4.39355253
 C           -1.53704119       -1.37430482       -3.32104535
 C           -1.30263129       -0.15703558       -4.08981799
