   70
C70 / DATE: 7/ 1/2024 / Origin: Program Fullerene / C70 from database
 C            1.45227321       -0.18077914        4.09252436
 C            2.57696529       -0.42612175        3.20780625
 C            2.44472244       -1.78124438        2.69339524
 C            0.59123240       -1.34846205        4.05978181
 C            1.27721962       -2.38859192        3.31533709
 C           -0.72444129       -0.92585234        3.60676351
 C            0.62698041        0.98416501        3.85703911
 C           -0.70026386        0.52054526        3.48299778
 C            1.17718562        2.04635930        3.16230609
 C            3.00567281        0.58517965        2.34770813
 C            2.42787640        1.85523442        2.43433541
 C            3.68941618        0.22617292        1.18582186
 C            2.72952164       -2.01840306        1.34980794
 C            3.60952462       -1.14915727        0.71774609
 C            1.86817593       -2.82036269        0.58822955
 C            0.50745190       -3.26719783        2.57274094
 C            0.96961628       -3.65085349        1.25345396
 C           -1.37013128       -1.69077346        2.63629679
 C           -0.91320300       -2.99165602        2.43764470
 C           -2.10842612       -1.04673459        1.63013562
 C           -1.35616330        1.11113778        2.41080976
 C           -2.24778669        0.34528627        1.66660334
 C            0.31124577        2.85309861        2.32433505
 C           -0.92421786        2.34875098        1.92139205
 C            2.36958906        2.69939813        1.24933090
 C            1.16002382        3.50033022        1.34446115
 C            3.62863496        1.09178256        0.01742670
 C            2.75353169        2.16990037        0.02096163
 C            3.67635412       -1.13401673       -0.72679440
 C            3.70954965        0.25356958       -1.15965273
 C            1.71363204       -2.59384821       -0.78999287
 C            2.63480082       -1.80769353       -1.47085695
 C            0.49920182       -2.87914130       -1.41978667
 C           -0.18994159       -4.15952145        0.54752866
 C           -1.37173042       -3.74285932        1.29394784
 C           -0.39857220       -3.76225632       -0.82818599
 C           -2.64208386       -1.77550839        0.55230764
 C           -2.26574705       -3.10287459        0.35568677
 C           -1.81959532       -3.50556317       -0.96247596
 C           -3.22804735       -1.09950989       -0.52267712
 C           -3.06936468        0.98408383        0.75098255
 C           -3.57225253        0.24176477       -0.38683201
 C           -1.55287347        2.91206172        0.80734325
 C           -2.70756200        2.31668450        0.30080647
 C            0.57605426        3.96914136        0.18161781
 C           -0.86413789        3.85107467        0.03719226
 C            2.00539477        2.46959661       -1.12401378
 C            1.15254773        3.57143693       -1.08967608
 C            2.71074607        0.42045830       -2.19343794
 C            2.14697403       -0.88632269       -2.48102572
 C            1.85376462        1.51239751       -2.13902537
 C            0.06757754       -2.08501641       -2.48775060
 C            0.81349832       -0.96384722       -2.86373187
 C           -2.24667381       -2.75725752       -2.04234193
 C           -3.17833155       -1.67288594       -1.79479355
 C           -1.24284798       -2.22093747       -2.94361033
 C           -3.11816845       -0.81690517       -2.96518026
 C           -1.86580642       -1.11503998       -3.64715374
 C           -3.55008412        1.12634553       -1.54563828
 C           -3.01862216        2.41029389       -1.11957247
 C           -3.19622455        0.62047167       -2.79030120
 C           -1.14316561        3.95837534       -1.38269100
 C            0.10452511        3.69511488       -2.08646397
 C           -2.16772204        3.11215378       -1.96479068
 C            0.66409371        1.44940680       -2.86539623
 C            0.15644926        0.20652009       -3.25469684
 C           -1.13364220        0.12801553       -3.77267286
 C           -2.07209260        1.20387938       -3.50650861
 C           -0.13169259        2.58429599       -2.98234402
 C           -1.57040813        2.43271114       -3.10453402
