   70
C70 / DATE: 7/ 1/2024 / Origin: Program Fullerene / C70 from database
 C            1.60822718        0.02419903        4.70219569
 C            0.81082335       -1.18236614        4.58694371
 C            1.47442790       -2.07686778        3.65166611
 C            2.70620791       -0.08143860        3.75887059
 C            2.69287865       -1.42046925        3.20261818
 C            2.62827422        1.04834362        2.84877204
 C            0.77752685        1.13941509        4.28628784
 C            1.47004740        1.84214523        3.22247508
 C           -0.55902303       -0.78748356        4.31143970
 C           -0.55351872        0.63488211        4.00731774
 C           -1.33152958       -1.63125815        3.53218597
 C            0.69341031       -2.78227213        2.73613355
 C           -0.69308821       -2.77444722        2.90305076
 C            1.24262663       -3.16568672        1.50576616
 C            3.09404826       -1.58589412        1.88755043
 C            2.42771619       -2.57888359        1.06636247
 C            2.88422359        0.84680820        1.49387319
 C            3.30829061       -0.41018367        1.05490017
 C            2.33379670        1.73252399        0.56581596
 C            0.71125700        2.40013268        2.20251903
 C            1.32506536        2.61145140        0.97268661
 C           -1.19523325        1.10122869        2.86187909
 C           -0.67199445        2.22615054        2.22534390
 C           -2.22523446       -1.05678981        2.54193945
 C           -2.05593709        0.26076351        2.14680493
 C           -1.55204648       -3.18002200        1.81031989
 C           -2.44682408       -2.06319153        1.52272336
 C            0.44625298       -3.81099359        0.56149784
 C           -0.99438353       -3.87904505        0.75608247
 C            0.68743833       -3.55044102       -0.85030184
 C            2.53675647       -2.15129104       -0.32173376
 C            3.06448033       -0.80240612       -0.32600673
 C            1.52644733       -2.49691957       -1.21209431
 C            2.48030051        1.45581060       -0.79075625
 C            2.52621888        0.12795174       -1.19759710
 C            2.09550169        2.41830203       -1.70818159
 C            0.64551725        3.35843436        0.01137864
 C            1.20858080        3.47367656       -1.25573454
 C           -1.41938121        2.80734817        1.21167370
 C           -0.72755001        3.54535990        0.16969188
 C           -2.49276899        0.64728460        0.87961738
 C           -2.43062538        1.99404826        0.56000203
 C           -2.65124758       -1.67034923        0.19916138
 C           -2.61659256       -0.30932067       -0.13879028
 C           -1.62092938       -3.76209236       -0.54487498
 C           -0.56535601       -3.73327606       -1.54216814
 C           -2.48834445       -2.62353765       -0.79632644
 C           -0.93842889       -2.75789103       -2.53392690
 C           -2.21943051       -2.19109942       -2.14537415
 C            1.12994385       -1.58457678       -2.20826712
 C            1.69994571       -0.29747717       -2.23997215
 C            0.02301977       -1.88216297       -3.02148826
 C            1.62601893        1.98417973       -3.00967034
 C            1.28897435        0.64050988       -3.19263574
 C            0.37570116        3.86378311       -2.38168298
 C            0.75758111        3.03637261       -3.51401873
 C           -1.60177484        3.53514574       -0.99128870
 C           -2.51198614        2.41011961       -0.82323107
 C           -1.06777989        3.79342507       -2.24471056
 C           -2.62869867        0.08630816       -1.49359705
 C           -2.45300591       -0.87428417       -2.50539802
 C           -2.61516085        1.45430398       -1.82739649
 C           -0.46024947       -0.90824426       -3.88480917
 C            0.31145866        0.28986014       -4.11715797
 C           -1.83717716       -0.48519063       -3.68581819
 C           -0.45194750        2.67322115       -4.21882793
 C           -1.58242725        3.05457233       -3.38305410
 C           -2.37516570        1.85913994       -3.14254066
 C           -0.63617645        1.28740773       -4.59262584
 C           -1.94796853        0.88324355       -4.11548885
