   70
C70 / DATE: 7/ 1/2024 / Origin: Program Fullerene / C70 from database
 C            1.47801398       -0.00824965        4.63714160
 C            0.65591030       -1.18112513        4.40012429
 C            1.25641156       -1.94230549        3.33342871
 C            2.56462779       -0.02750246        3.67374338
 C            2.46179150       -1.24154424        2.90660102
 C            2.53518902        1.21688544        2.95217265
 C            0.66239979        1.16258811        4.35962315
 C            1.31467992        1.91920545        3.32230984
 C           -0.70027545       -0.73406720        4.21868784
 C           -0.68647782        0.71664252        4.11666848
 C           -1.52101924       -1.41156031        3.33171953
 C            0.43866541       -2.50865446        2.35693536
 C           -0.93496825       -2.19765687        2.31688939
 C            1.07242745       -2.94569265        1.19871151
 C            2.75309519       -1.21055248        1.54705341
 C            2.31849916       -2.30166744        0.81302194
 C            2.89322844        1.23033439        1.61055470
 C            2.95891213        0.02047979        0.89001039
 C            2.55370802        2.38721539        0.93036285
 C            0.55107303        2.47553755        2.29948361
 C            1.27430115        3.00619104        1.24245041
 C           -1.42560125        1.29675352        3.08608265
 C           -0.74652655        1.98375143        2.06113804
 C           -2.71138812       -0.75947571        3.05085502
 C           -2.63271330        0.67115599        2.79586359
 C           -3.60832947       -1.33444250        2.08311878
 C           -1.67975869       -2.50199304        1.16111925
 C           -3.05632161       -2.29032971        1.15332488
 C            0.30259119       -3.17378226       -0.00714586
 C           -1.02456796       -2.78940973       -0.04134850
 C            2.37297104       -2.25941419       -0.62416367
 C            1.15656164       -2.86832505       -1.13908878
 C            3.02645988        0.05616726       -0.52100395
 C            2.86719846       -1.13211059       -1.25841216
 C            2.73240399        2.44885472       -0.49524713
 C            3.08817919        1.29789322       -1.18378221
 C            0.61508572        3.26993123       -0.01384159
 C            1.66088379        3.28133138       -1.01732724
 C           -1.27324278        1.99661321        0.75001092
 C           -0.58103830        2.62357948       -0.28838268
 C           -3.26835252        0.90130341        1.51933291
 C           -4.14362482       -0.23423205        1.30144261
 C           -2.49615338        1.38437784        0.46944489
 C           -3.72616010       -2.05626074       -0.10831070
 C           -4.31248100       -0.72151069       -0.04450698
 C           -1.59961289       -2.44985380       -1.27115355
 C           -2.95099041       -2.11684924       -1.33257365
 C            0.60028225       -2.35055085       -2.30410025
 C           -0.78089793       -2.12143263       -2.36081103
 C            2.66974026       -1.07821096       -2.63165594
 C            1.45729201       -1.67221410       -3.17480646
 C            3.05402042        1.36356471       -2.57490478
 C            2.93056440        0.14808169       -3.34218586
 C            1.30604275        3.13028672       -2.34412164
 C            2.19686148        2.36196281       -3.19612126
 C           -0.92326577        2.35010005       -1.61630743
 C           -0.05478559        2.71943416       -2.65089030
 C           -2.83485500        1.07850749       -0.85628872
 C           -3.72514938        0.03471196       -1.12840733
 C           -3.33941035       -0.95566981       -2.10894150
 C           -2.00590471        1.51198629       -1.89405917
 C           -1.31266857       -1.33805051       -3.38717718
 C           -2.50019626       -0.54888918       -3.12426388
 C           -2.05042212        0.82841692       -3.11216211
 C            0.92411094       -0.75759474       -4.16880506
 C            1.86943125        0.33474499       -4.32064133
 C            1.38841107        1.69735034       -4.20093503
 C           -0.00646096        1.92116226       -3.86493974
 C           -0.43556811       -0.48917427       -4.17105108
 C           -0.91283688        0.88325198       -4.00956187
