   70
C70 / DATE: 7/ 1/2024 / Origin: Program Fullerene / C70 from database
 C            1.51954525       -0.24045588        4.88263827
 C            0.67775979       -1.42236993        4.90883845
 C            1.19664867       -2.36352491        3.93035326
 C            2.57050634       -0.46799763        3.90855303
 C            2.36102266       -1.77272688        3.30753429
 C            2.61207954        0.68374296        3.02342999
 C            0.71699441        0.86804681        4.39645644
 C            1.44108761        1.49543123        3.30828823
 C           -0.64795942       -1.03052050        4.46699307
 C           -0.61956835        0.37785151        4.12551363
 C            0.09893224       -2.76119991        3.07365318
 C           -1.05888562       -1.96301850        3.43734587
 C            0.34112167       -2.95995756        1.71737264
 C            2.49519711       -1.86841261        1.92850356
 C            1.60800928       -2.66436535        1.19255886
 C            2.94198089        0.46960187        1.68872131
 C            3.16339284       -0.84160566        1.27080612
 C            2.51498857        1.40116335        0.74114859
 C            0.71909198        1.98568629        2.22782575
 C            1.39253062        2.18841402        1.02875493
 C           -1.23483613        0.77101915        2.94214658
 C           -0.66380369        1.79359954        2.18437200
 C           -1.85256385       -1.49231638        2.40083618
 C           -2.09926279       -0.11790828        2.30509630
 C           -0.75763494       -2.96187055        0.86017984
 C           -1.90189259       -2.25054937        1.23666750
 C           -0.55617644       -3.31389303       -0.46792817
 C            1.82945051       -2.80266406       -0.18444224
 C            0.78701102       -3.22996180       -1.01049765
 C            3.54491349       -1.05949159       -0.04111318
 C            2.93644109       -2.17009173       -0.75115234
 C            2.94656595        1.25484161       -0.57992603
 C            3.57892050        0.07007184       -0.95154409
 C            2.43250289        2.09219238       -1.56771663
 C            0.71896337        2.84149168        0.00260981
 C            1.34887319        2.99418388       -1.22590770
 C           -1.35867651        2.24467076        1.06349329
 C           -0.66723578        2.97244671        0.09037670
 C           -2.83959746        0.35239854        1.22106991
 C           -2.57387024        1.63405296        0.73653201
 C           -2.85857187       -1.90638302        0.29121414
 C           -3.43655710       -0.57840868        0.37336151
 C           -1.48158057       -2.85961411       -1.49238209
 C           -2.64071338       -2.20729516       -1.11353003
 C            0.67583273       -2.73071442       -2.37719396
 C           -0.69708948       -2.31224569       -2.58322195
 C            2.92934344       -1.82971294       -2.16394270
 C            3.37940316       -0.45356922       -2.29048737
 C            1.69699930       -1.96724362       -2.91338616
 C            2.15579486        1.56000505       -2.89852570
 C            2.46607327        0.23879079       -3.17662665
 C            1.38085898       -0.67417073       -3.49958819
 C            0.54895704        3.18275339       -2.42281604
 C            0.85858489        2.06779087       -3.30213114
 C           -1.37233437        3.54802182       -0.96340734
 C           -0.77547614        3.56688414       -2.29047355
 C           -3.31304816        2.11622509       -0.34146109
 C           -2.77722542        3.22013831       -1.11643070
 C           -3.81464871       -0.18519590       -0.97168933
 C           -3.08924467       -1.05810436       -1.88306414
 C           -3.90003374        1.16418118       -1.27328442
 C           -0.97465417       -1.02655499       -3.04711754
 C            0.06730275       -0.19916131       -3.48815911
 C           -0.15331727        1.17147558       -3.64800204
 C           -2.25368205       -0.49799779       -2.85242086
 C           -1.73794833        2.97465894       -3.19933058
 C           -3.01860811        2.93637652       -2.52066711
 C           -3.52234961        1.57966910       -2.60970942
 C           -1.45727420        1.64781247       -3.72460278
 C           -2.54736071        0.77558372       -3.32936527
