   70
C70 / DATE: 7/ 1/2024 / Origin: Program Fullerene / C70 from database
 C            1.27532498        0.08229178        4.41280940
 C            2.51501917       -0.28110062        3.76879942
 C            2.46189609       -1.70512615        3.47884500
 C            0.43648019       -1.10459441        4.47607921
 C            1.10751538       -2.16041382        3.73916795
 C           -0.90943617       -0.72475133        4.08585818
 C            0.48570720        1.14357140        3.82894603
 C           -0.89140054        0.68662503        3.74063164
 C            0.99436023        1.90961022        2.78256962
 C            2.88715938        0.40317794        2.54501708
 C            2.11187471        1.46058867        2.05886078
 C            3.02356305       -1.91009036        2.15802019
 C            3.34802748       -0.60474866        1.60825779
 C            2.44141931       -2.85442452        1.33005476
 C            0.41381426       -2.84308189        2.74031883
 C            1.11608286       -3.36768239        1.65480621
 C           -1.64363641       -1.59444107        3.30068099
 C           -0.97417076       -2.72234338        2.66377768
 C           -2.57633257       -1.04565542        2.33669910
 C           -1.68023391        1.17183243        2.69584402
 C           -2.46045517        0.28786609        1.93926312
 C            0.09483650        2.76817420        2.16560982
 C           -1.31078855        2.39245701        2.14447843
 C            0.41741817        3.34759463        0.88003100
 C            2.26063662        1.82043788        0.71138625
 C            1.53377784        2.90098566        0.19409073
 C            3.16604780       -0.35929919        0.25373942
 C            2.95349680        0.95272383       -0.14533917
 C            2.48831683       -2.65070984       -0.10549373
 C            2.81770430       -1.39754871       -0.61849095
 C            0.42408477       -3.62032755        0.39863263
 C            1.36992359       -3.37541785       -0.67628023
 C           -1.65443784       -2.97518536        1.40131611
 C           -2.79066249       -2.07271912        1.33511591
 C           -0.90467910       -3.22921967        0.25579557
 C           -3.27418818       -1.69421752        0.09810328
 C           -2.95901418        0.67110901        0.68476975
 C           -3.55369304       -0.29043027       -0.13309621
 C           -1.86326253        2.80669478        0.87276960
 C           -0.82793934        3.53227698        0.15282286
 C           -2.69501279        1.94665033        0.17142534
 C           -0.81692179        3.49171244       -1.23932290
 C            1.63261552        3.23173868       -1.15291090
 C            0.41329939        3.49746783       -1.90488091
 C            3.06133665        1.23557802       -1.49636550
 C            2.52411091        2.47638356       -2.00326716
 C            2.47612582       -1.09532844       -1.94258787
 C            2.73534222        0.18089272       -2.43705523
 C            0.89268780       -2.98659911       -1.91481563
 C            1.55179704       -1.89508680       -2.61348609
 C           -1.38801965       -2.83533457       -0.99711193
 C           -2.62283569       -2.19988552       -1.09794281
 C           -0.53816268       -2.82259999       -2.09980366
 C           -3.56625087       -0.10230473       -1.56948627
 C           -2.84413605       -1.22479732       -2.15742241
 C           -2.92088280        2.22081047       -1.17751021
 C           -1.96300498        3.04780061       -1.89871330
 C           -3.37184587        1.16982327       -2.07542021
 C           -1.85877713        2.52772057       -3.24946735
 C           -2.65213853        1.31370124       -3.32507408
 C            0.55056300        2.86649105       -3.21338130
 C            1.82925730        2.18748763       -3.24598116
 C            1.85236205        0.74957106       -3.44569736
 C           -0.54467509        2.23885456       -3.78378679
 C            0.56565570       -1.27281637       -3.48310042
 C           -0.73594619       -1.83142953       -3.14684122
 C           -1.84796270       -0.99639581       -3.10887248
 C           -1.78280909        0.23438557       -3.75722532
 C            0.67568406        0.08191416       -3.78104516
 C           -0.48161228        0.80910597       -4.06811774
