   70
C70 / DATE: 7/ 1/2024 / Origin: Program Fullerene / C70 from database
 C            1.55715642        0.00961580        4.71519405
 C            0.74995320       -1.17455606        4.53369840
 C            1.29426259       -1.93472597        3.41814817
 C            2.61917089       -0.03789590        3.72975152
 C            2.36624449       -1.14623134        2.83724405
 C            2.68772017        1.27197692        3.14197390
 C            0.71547710        1.15216721        4.39065466
 C            1.44576555        1.96155090        3.45616295
 C           -0.62613490       -0.73261196        4.43215182
 C           -0.57211233        0.64699841        3.97634431
 C           -1.49575614       -1.57906456        3.78331484
 C            0.38445824       -2.56949829        2.58023789
 C           -0.91780152       -2.69787068        3.05906657
 C            0.59444412       -2.54629290        1.19431271
 C            2.36040449       -0.89798316        1.46841471
 C            1.54554588       -1.66964804        0.64324703
 C            3.11490945        1.38711686        1.83273019
 C            2.92310380        0.28851883        0.96895825
 C            2.91797539        2.64882323        1.30579817
 C            0.76848198        2.54311576        2.38968402
 C            1.59177632        3.21419264        1.49749595
 C           -1.06266779        0.96830657        2.70166353
 C           -0.37833900        1.89336106        1.89106892
 C           -2.43651824       -0.99413698        2.85607948
 C           -2.05829429        0.15365211        2.15181996
 C           -1.95287615       -3.16601388        2.16849360
 C           -2.97124259       -2.12369107        2.13303424
 C           -0.30891115       -3.21362161        0.35320893
 C           -1.60223559       -3.46356197        0.79773649
 C           -0.10336243       -3.20032463       -1.01979428
 C            1.64147987       -1.51239931       -0.73671128
 C            0.96917598       -2.39471786       -1.56901669
 C            2.94103453        0.50119581       -0.42236463
 C            2.19814049       -0.34485081       -1.26480235
 C            3.30510704        2.88088849       -0.05514732
 C            3.41718883        1.72136093       -0.90657664
 C            1.09593044        3.55584997        0.18828051
 C            2.27960461        3.72761237       -0.63203008
 C           -0.70368943        1.98862955        0.52362684
 C            0.01165359        2.84907596       -0.32131592
 C           -2.41791679        0.28876843        0.80292508
 C           -1.73345817        1.20674675       -0.01002994
 C           -3.33187976       -1.93126021        0.75587527
 C           -2.71315111       -2.99837259       -0.00932559
 C           -3.28669122       -0.65293609        0.22371898
 C           -1.25617937       -3.07203876       -1.90448872
 C           -2.51100925       -2.77005112       -1.36460012
 C            0.56669346       -1.95406908       -2.88989858
 C           -0.79865031       -2.41432414       -3.12076885
 C            1.93116857        0.01100161       -2.60194945
 C            0.96600601       -0.69626627       -3.32711424
 C            3.01911762        2.17588912       -2.21676281
 C            2.19984518        3.36981450       -2.02279356
 C            2.25504328        1.28534725       -3.05934672
 C           -0.17051944        2.78089120       -1.70958459
 C            0.90256066        3.05051142       -2.56814868
 C            1.18989164        2.09593832       -3.61265633
 C           -2.07708582        1.34307287       -1.36144169
 C           -1.24126402        2.05518590       -2.23066547
 C           -3.56222284       -0.57505926       -1.12944148
 C           -3.26910514       -1.75117178       -1.93821535
 C           -3.11684346        0.57405047       -1.87667518
 C           -1.67975723       -1.62828911       -3.85275773
 C           -2.96724895       -1.29487404       -3.27723638
 C           -3.08616860        0.15428518       -3.26519464
 C            0.18167718       -0.00592952       -4.25465768
 C            0.11576752        1.43894715       -4.16564185
 C           -1.18221066        1.70692112       -3.58622686
 C           -1.18409360       -0.43348060       -4.50346421
 C           -2.04853927        0.67643889       -4.11527009
