   70
C70 / DATE: 7/ 1/2024 / Origin: Program Fullerene / C70 from database
 C            1.70596094        0.08683466        4.72925577
 C            0.85320543       -1.08863955        4.66998601
 C            1.37295926       -1.95876928        3.63244188
 C            2.63114580        0.01945662        3.61164948
 C            2.52828389       -1.30000605        3.03579732
 C            2.38486692        1.14927695        2.74289548
 C            0.86422993        1.24964477        4.53085125
 C            1.32773279        1.94508269        3.34121175
 C           -0.52260751       -0.64291394        4.57965465
 C           -0.51940485        0.81451187        4.57922778
 C           -1.39127557       -1.33238022        3.74175422
 C            0.49123372       -2.64530744        2.79447780
 C           -0.87983176       -2.38422929        2.86878897
 C            1.00731289       -3.17282883        1.61389451
 C            2.71793263       -1.44762356        1.66932253
 C            2.26014642       -2.63153659        1.12025467
 C            2.35844868        0.93309401        1.36837784
 C            2.75716573       -0.30712485        0.85079811
 C            1.62427164        1.80397479        0.56296614
 C            0.38501331        2.52551029        2.50224796
 C            0.68535082        2.66147503        1.14727731
 C           -1.43964269        1.50254422        3.80030141
 C           -0.95351301        2.53478812        2.89933016
 C           -2.42117362       -0.60982576        3.01290393
 C           -2.47705273        0.77367948        3.08594139
 C           -1.68249909       -2.38040813        1.65063591
 C           -2.59936981       -1.25942571        1.72641271
 C            0.13820011       -3.34309728        0.45901451
 C           -1.08279488       -2.69244017        0.43126555
 C            2.26921932       -2.77871659       -0.31120314
 C            0.98066379       -3.31288816       -0.71506936
 C            2.81291455       -0.46554166       -0.54132334
 C            2.80486086       -1.76180605       -1.08220542
 C            1.67761047        1.64561894       -0.82269726
 C            2.46608226        0.62495313       -1.35251508
 C            0.82993879        2.38170559       -1.65970101
 C           -0.21897271        3.34008397        0.34060977
 C           -0.11927297        3.22747114       -1.10176503
 C           -1.98804491        2.73942893        1.90234476
 C           -2.80010547        1.53536776        1.88921370
 C           -1.63057571        3.29698171        0.68689059
 C           -2.80581686       -0.50017450        0.58498757
 C           -3.00627564        0.88167498        0.67527182
 C           -1.47743161       -2.01681092       -0.73236611
 C           -2.49946215       -1.06678879       -0.64708437
 C            0.46719309       -2.87184022       -1.92676567
 C           -0.75421443       -2.17491357       -1.93207047
 C            2.64310835       -1.91519000       -2.45168503
 C            1.42046517       -2.56998751       -2.89473721
 C            2.61821844        0.53443686       -2.73222519
 C            2.85424491       -0.77163064       -3.30485792
 C            0.69320843        2.02070674       -3.00093895
 C            1.67265957        1.22931877       -3.58977161
 C           -0.56759501        2.09166160       -3.60478958
 C           -1.47361535        3.20407044       -1.62491646
 C           -2.33665074        2.86669762       -0.50576808
 C           -3.00662047        1.64082363       -0.49727402
 C           -1.70253603        2.59902062       -2.84977273
 C           -2.95256055       -0.43038262       -1.78780859
 C           -3.23350204        0.99218003       -1.70797816
 C           -2.75617408        1.60444981       -2.93467146
 C           -1.18005114       -1.51166387       -3.09925978
 C           -1.04574592        0.96885149       -4.40195085
 C           -2.30933687       -0.69937137       -3.05658416
 C           -2.29778364        0.54184067       -3.81106516
 C            1.00570273       -1.95228484       -4.12857092
 C            1.98802601       -0.93147958       -4.45807026
 C            1.27102871        0.31328334       -4.64275027
 C           -0.30156934       -1.34000390       -4.17366090
 C           -0.13552718       -0.01246986       -4.75438163
