   70
C70 / DATE: 7/ 1/2024 / Origin: Program Fullerene / C70 from database
 C            1.53932836        0.05009940        4.83104754
 C            0.72177254       -1.13230472        5.00178056
 C            1.29521803       -2.19274587        4.18616219
 C            2.52229383       -0.24938673        3.80599387
 C            2.23814805       -1.56602305        3.27576362
 C            2.51347247        0.85492808        2.87980928
 C            0.68229522        1.10305668        4.31128892
 C            1.35693294        1.67942984        3.16974443
 C           -0.66108603       -0.75059741        4.76552894
 C           -0.63625889        0.54410902        4.10343888
 C           -1.52113329       -1.72458872        4.28865514
 C            0.43612932       -3.15766448        3.69146438
 C           -0.97029703       -3.04909401        4.04465880
 C            0.49557208       -3.48760101        2.27528104
 C            2.07175047       -1.70184563        1.89491541
 C            1.16782910       -2.63925952        1.39059726
 C            2.74700569        0.59738451        1.54204724
 C            2.55576003       -0.70228739        1.04867229
 C            2.47973059        1.64229364        0.67595714
 C            0.60195004        2.09041347        2.07549464
 C            1.30265015        2.36269696        0.89902016
 C           -1.22646371        0.69150205        2.84829160
 C           -0.71973207        1.64267403        1.95525099
 C           -2.38129885       -1.40692900        3.15985293
 C           -2.12529104       -0.27269766        2.38568972
 C           -1.73825681       -3.65861610        2.98072487
 C           -0.81418623       -3.97541836        1.90465223
 C           -2.65787796       -2.65253030        2.47833199
 C           -1.39384004       -3.46749813        0.68749767
 C           -2.54748379       -2.66098671        1.04088799
 C            0.73758412       -2.53944529        0.05500189
 C           -0.55766711       -2.94614929       -0.28851090
 C            2.44269975       -0.87142732       -0.33520758
 C            1.43241720       -1.70112922       -0.83661635
 C            2.93927312        1.49049737       -0.61454256
 C            2.95520139        0.14033836       -1.14253059
 C            2.42957703        2.36097281       -1.64660765
 C            0.58930971        2.85996312       -0.19173600
 C            1.25899114        3.06842638       -1.40332290
 C           -1.37154152        1.84684548        0.74153374
 C           -0.80241833        2.73031651       -0.17311187
 C           -2.51260157       -0.25811268        1.03878033
 C           -2.68893075       -1.46452540        0.35393033
 C           -2.28210962        0.89206675        0.27680274
 C           -1.18477923       -2.25185397       -1.30540326
 C           -2.30466041       -1.48496673       -0.97568088
 C            0.89850600       -1.46150104       -2.12211726
 C           -0.41947258       -1.85516707       -2.38265794
 C            2.57369344        0.22118655       -2.53704447
 C            2.57398715        1.63436645       -2.89231859
 C            1.56161317       -0.59968005       -3.01415485
 C            1.84508099        2.05531014       -3.99364931
 C            0.57359440        3.60696142       -2.48746262
 C            0.93559493        3.18006586       -3.83227250
 C           -1.53855384        3.05329469       -1.30375964
 C           -0.87031077        3.68304920       -2.42451043
 C           -2.59324889        0.86824076       -1.09095030
 C           -2.58374735       -0.36570722       -1.74691266
 C           -2.44328681        2.04667124       -1.82221667
 C           -1.11417917       -1.28499086       -3.43649090
 C           -2.23882615       -0.43822772       -3.09310036
 C            0.98903462       -0.28359745       -4.24908493
 C            1.17411662        1.05263336       -4.79940092
 C           -0.38183879       -0.65691678       -4.50461347
 C           -0.29056875        2.87747534       -4.55186094
 C           -1.40419000        3.10564514       -3.64641229
 C           -2.26915824        1.99852301       -3.26591420
 C           -2.14758541        0.76573976       -3.89280894
 C           -0.13375494        1.57443145       -5.16911196
 C           -1.11147773        0.53986406       -4.89245404
