   70
C70 / DATE: 7/ 1/2024 / Origin: Program Fullerene / C70 from database
 C            1.18575918        0.01444128        4.39160140
 C            2.44777646       -0.24601645        3.73788584
 C            2.39208816       -1.59611720        3.19763308
 C            0.34348738       -1.15830061        4.21128920
 C            1.01861823       -2.04256219        3.28523242
 C           -0.98827390       -0.69448106        3.87155510
 C            0.41355692        1.16632015        3.97228514
 C           -0.97940462        0.75927291        3.93157589
 C            0.89036703        2.00448326        2.96611812
 C            2.85921105        0.62498071        2.65470789
 C            1.97848752        1.59928901        2.17883330
 C            3.02226817       -1.56267223        1.89329953
 C            3.55172488       -0.22378954        1.70444627
 C            2.39683620       -2.18091215        0.81564652
 C            0.35915282       -2.40897549        2.11863573
 C            1.09534806       -2.68313104        0.96026152
 C           -1.67941486       -1.31074856        2.83647541
 C           -1.02708180       -2.25948457        2.03961377
 C           -2.80139064       -0.65553368        2.34063546
 C           -1.85500920        1.47933394        3.12110399
 C           -2.87879841        0.79228115        2.46076081
 C            0.00156030        2.94551382        2.45988377
 C           -1.42601645        2.71483107        2.63740304
 C            0.19415389        3.45188959        1.11520480
 C            2.06677619        2.00059037        0.83869391
 C            1.06063624        2.77552024        0.26813172
 C            3.71549532        0.23496603        0.40860180
 C            3.05466148        1.46901912        0.02175704
 C            2.88410204       -1.90872991       -0.46091578
 C            3.53686142       -0.70045885       -0.68955366
 C            2.34486314       -2.58605956       -1.54384571
 C            0.45523023       -3.26202639       -0.13865186
 C            1.14454792       -3.37584350       -1.34312445
 C           -1.70112696       -2.82840814        0.96623572
 C           -0.93498580       -3.37896779       -0.13938936
 C           -3.35180726       -1.02828092        1.04883390
 C           -2.85333109       -2.14356004        0.40233389
 C           -3.43920876        1.30416657        1.21505554
 C           -3.55435371        0.19192803        0.28753661
 C           -2.11222158        3.33250987        1.51896899
 C           -1.09867579        3.86058444        0.61948836
 C           -3.03945522        2.53921158        0.73559554
 C           -1.45801501        3.48099368       -0.72382818
 C           -2.66105060        2.66694785       -0.66039899
 C            0.78206527        2.67199470       -1.10811928
 C           -0.46620056        3.08934254       -1.61114744
 C            2.82616426        1.41343338       -1.40866104
 C            3.18953156        0.07837734       -1.86532915
 C            1.70491442        2.02829834       -1.95417840
 C            2.21600559       -1.89529374       -2.81926985
 C            2.44814655       -0.52033711       -2.88094134
 C            0.40062407       -3.36853184       -2.59095809
 C            1.07278109       -2.46394729       -3.50896221
 C           -1.68426165       -3.10685156       -1.35900328
 C           -2.66046849       -2.08725112       -1.03316962
 C           -1.00627743       -3.01701911       -2.56230674
 C           -3.02583045        0.30414127       -1.00039384
 C           -2.76063320        1.57533600       -1.52537050
 C           -2.59714036       -0.85050612       -1.67415687
 C           -0.92714124        2.54824372       -2.80184093
 C           -2.09480960        1.68288628       -2.74173655
 C            1.32986978        1.63884146       -3.23754838
 C            1.64076783        0.28838590       -3.68418184
 C            0.01400074        1.97151985       -3.72736894
 C            0.07988141       -1.56881579       -4.06372043
 C           -1.18129156       -1.82709532       -3.38004989
 C           -1.94420557       -0.75446453       -2.90667509
 C           -1.79133725        0.49002132       -3.50359657
 C            0.44504655       -0.25694239       -4.31980959
 C           -0.58415034        0.76221905       -4.26511718
