   70
C70 / DATE: 7/ 1/2024 / Origin: Program Fullerene / C70 from database
 C            1.66828718        0.02030523        4.27204306
 C            0.82769358       -1.15111416        4.11710814
 C            1.45355536       -2.01630737        3.13844464
 C            2.65721698       -0.00341916        3.20680174
 C            2.52639788       -1.26242717        2.51357634
 C            2.51866394        1.21459525        2.43903802
 C            0.83381907        1.18661155        4.06534314
 C            1.47811297        2.01113512        3.06559379
 C           -0.52922566       -0.70927782        3.85672999
 C           -0.51980933        0.74200908        3.79571473
 C           -1.26932235       -1.41198186        2.91643671
 C            0.62996515       -2.76608489        2.30782051
 C           -0.75489108       -2.61712818        2.42974643
 C            1.15113978       -3.19441327        1.08754780
 C            2.60359719       -1.28368191        1.12840060
 C            2.15961128       -2.43384479        0.48524135
 C            2.55052607        1.15414219        1.04417792
 C            2.68285987       -0.08343252        0.40080208
 C            2.03254623        2.23785143        0.33138100
 C            0.67432012        2.76025928        2.22593266
 C            1.22562119        3.15604562        1.01683068
 C           -1.21808443        1.38321984        2.77749074
 C           -0.71217670        2.58853626        2.28803324
 C           -2.23338926       -0.73054660        2.17111539
 C           -2.10746649        0.64996170        1.98388035
 C           -3.02876256       -1.45173617        1.28240808
 C           -1.58576977       -3.44273146        1.68094817
 C           -2.80429119       -2.87812499        1.13411779
 C            0.40913933       -4.09368945        0.32855042
 C           -0.99451897       -4.28273649        0.65470322
 C            0.50822920       -4.05862341       -1.11705055
 C            2.43763188       -2.57607012       -0.86633556
 C            1.59022921       -3.41783308       -1.69847868
 C            2.65578595       -0.13610608       -0.99776016
 C            2.77470478       -1.38087495       -1.61978823
 C            2.03111149        2.20396275       -1.06676695
 C            2.21662762        0.98088141       -1.73187668
 C            1.58252746        3.31913458       -1.77685923
 C            0.57281846        4.16676096        0.32941466
 C            0.82257294        4.33889767       -1.08325959
 C           -1.49945587        3.31215308        1.40015517
 C           -0.85372530        4.29856895        0.54764464
 C           -2.61163777        1.21922152        0.80966117
 C           -2.44473525        2.57731198        0.57890623
 C           -3.25439114       -0.90571705       -0.04442174
 C           -2.85641750        0.39715250       -0.28348223
 C           -2.84212350       -3.18547468       -0.28716701
 C           -1.76093175       -4.09916231       -0.56952125
 C           -0.82289651       -3.75374648       -1.61552457
 C           -2.89525527       -1.92660802       -1.00641667
 C           -1.00878570       -2.59963544       -2.37797915
 C           -1.93576808       -1.62485679       -1.97299532
 C            1.36695599       -2.70631774       -2.94152166
 C            2.24794018       -1.55311801       -2.95218431
 C            0.02126262       -2.24118971       -3.23867635
 C            1.72806202        0.82091484       -3.04505502
 C            1.51429514       -0.45800062       -3.52742415
 C            0.12978000       -0.87300847       -3.69407599
 C            0.91957699        3.11332224       -3.04220476
 C            0.84390650        1.76494474       -3.53799486
 C           -0.46935680        4.46216207       -1.74795810
 C           -1.49726381        4.24919246       -0.75132052
 C           -2.27966492        3.02539828       -0.79445196
 C           -0.44462965        3.58973241       -2.90069278
 C           -2.29232797        0.72851775       -1.51629779
 C           -1.74724743       -0.28142026       -2.32865238
 C           -0.86153163        0.04386757       -3.36270984
 C           -0.55818107        1.38146939       -3.59988010
 C           -2.04729898        2.07565423       -1.79405653
 C           -1.30575792        2.41654758       -2.92089995
