   70
C70 / DATE: 7/ 1/2024 / Origin: Program Fullerene / C70 from database
 C            1.32746798        0.06562026        4.79372398
 C            2.50614776       -0.16033791        3.98554708
 C            2.47432535       -1.54005089        3.52330071
 C            0.49402309       -1.12340395        4.70958619
 C            1.20907414       -2.12145101        3.92912528
 C           -0.83270917       -0.70954514        4.27682239
 C            0.49456806        1.21013000        4.49401424
 C           -0.86935768        0.73615811        4.30955309
 C            0.81569054        2.04584834        3.34911610
 C            2.75054594        0.68430387        2.82602266
 C            1.87838249        1.72322715        2.50010056
 C            2.83008295       -1.53930834        2.11404287
 C            3.21859023       -0.18349607        1.76687302
 C            2.06591831       -2.27070241        1.20254985
 C            0.49760666       -2.87787235        3.00840999
 C            1.04253481       -3.08860609        1.67338241
 C           -1.42826299       -1.37284264        3.20971338
 C           -0.91878324       -2.61460432        2.83723262
 C           -2.23471759       -0.66391492        2.31013188
 C           -1.42605345        1.43942056        3.16993593
 C           -0.45042745        2.43043426        2.75770986
 C           -2.09475467        0.72266685        2.18036889
 C           -0.45553237        2.82615674        1.43330254
 C            1.83238656        2.17481009        1.17634316
 C            0.76851546        2.98952698        0.79240932
 C            3.04409808        0.21859810        0.45601798
 C            2.56610681        1.50146934        0.19048106
 C            2.07466038       -1.87948258       -0.14007292
 C            2.83775244       -0.76791207       -0.49413488
 C            1.09371274       -2.35135911       -1.02443977
 C           -0.07726419       -3.39908938        0.80239978
 C           -1.30023240       -3.18923448        1.56340667
 C           -0.04046260       -3.00390142       -0.52995467
 C           -2.90761169       -1.36737818        1.31712361
 C           -2.40435591       -2.67131699        0.90947648
 C           -3.33470215       -0.66812166        0.11642663
 C           -2.25540013        1.32465911        0.92601027
 C           -1.56837144        2.51157058        0.66056084
 C           -2.88809553        0.62956303       -0.11142659
 C           -1.68004374        3.10937041       -0.58526126
 C            0.76998463        3.54638493       -0.47871142
 C           -0.51282967        3.79220370       -1.11543736
 C            2.46796608        1.90395029       -1.14732199
 C            1.66264218        2.99425576       -1.48116415
 C            2.93752231       -0.40495515       -1.82318232
 C            2.86245724        1.00936135       -2.14453610
 C            1.14470988       -1.97933772       -2.37307712
 C            2.15514379       -1.12479097       -2.80639280
 C            0.02782438       -2.17505920       -3.18646541
 C           -1.24102343       -2.93303269       -1.23692179
 C           -2.42679925       -2.70441975       -0.53935700
 C           -3.30516914       -1.63113863       -0.96865135
 C           -1.20933952       -2.65025029       -2.59541350
 C           -3.19472941       -1.17160271       -2.27001365
 C           -2.29951696       -1.87856823       -3.16857251
 C           -2.85249711        1.12386344       -1.42125785
 C           -2.29643790        2.37325838       -1.67043116
 C           -3.00804324        0.25206104       -2.49926252
 C           -0.39271964        3.45795437       -2.52209317
 C            0.96917173        3.03333948       -2.76593205
 C           -1.47620032        2.55489233       -2.86020945
 C            2.30059784        1.12203528       -3.47787042
 C            1.89073340       -0.20716068       -3.90069060
 C            1.19006036        2.02610525       -3.69222382
 C           -0.31512278       -1.18593724       -4.20375183
 C           -1.73099170       -0.91179876       -4.08895622
 C           -2.14790476        0.41077228       -3.66359069
 C           -1.22853115        1.45708606       -3.68064795
 C            0.54165528       -0.11876093       -4.42053568
 C            0.06233449        1.23968715       -4.18325933
