   70
C70 / DATE: 7/ 1/2024 / Origin: Program Fullerene / C70 from database
 C            1.49933119       -0.15959475        4.24619538
 C            2.66520513       -0.33471406        3.39490460
 C            2.48517641       -1.57118510        2.65164949
 C            0.63273463       -1.30897988        4.05798977
 C            1.32189136       -2.25074524        3.19808474
 C           -0.67475061       -0.82647190        3.64761371
 C            0.68994080        1.03903166        4.09978198
 C           -0.63594087        0.62505963        3.67410677
 C            1.26095745        2.16661050        3.52935812
 C            3.19411589        0.77322014        2.75021792
 C            2.61961911        2.08144930        3.01807638
 C            3.47109564        0.69780158        1.32609010
 C            2.70090427       -1.59826306        1.27360167
 C            3.15280160       -0.44930581        0.61364643
 C            2.16605704       -2.65389601        0.52574220
 C            0.55794590       -3.03256201        2.34761587
 C            1.09344196       -3.37603161        1.04229545
 C           -1.33113119       -1.46797959        2.59648364
 C           -0.84736022       -2.69855428        2.15733252
 C           -2.17932474       -0.72854438        1.76470369
 C           -1.29271916        1.31725238        2.66698692
 C           -2.28607610        0.65503724        1.95857261
 C            0.48546191        2.95723846        2.58743684
 C           -0.75947646        2.50409136        2.15033910
 C            2.68455143        2.85677978        1.79245488
 C            3.15743587        1.98486589        0.73091771
 C            1.41000082        3.52539719        1.61994033
 C            2.51554536        2.02061815       -0.50761262
 C            2.96703905       -0.33728151       -0.75751277
 C            2.45336722        0.85641887       -1.28143999
 C            2.38679282       -2.69225178       -0.84852643
 C            2.91187343       -1.50704811       -1.49650334
 C            1.35522751       -3.23917822       -1.71864654
 C           -0.03712215       -3.67888285        0.18102989
 C           -1.23566430       -3.19366884        0.85096583
 C            0.09123039       -3.50689342       -1.19483080
 C           -2.73858789       -1.33006601        0.62682018
 C           -2.18442910       -2.50409566        0.11135656
 C           -3.67961977       -0.63904319       -0.13275241
 C           -3.11085068        1.41421492        1.14560169
 C           -3.93220799        0.75638465        0.15383695
 C           -1.30884773        3.05378593        0.98597633
 C           -2.55584715        2.61333762        0.55033284
 C            0.95925652        3.74046182        0.32814973
 C            1.63211646        3.06472130       -0.77333679
 C           -0.46663308        3.66847636        0.06313872
 C            0.66958540        2.92955682       -1.84934097
 C           -0.62570972        3.36964478       -1.35003798
 C            1.69714327        0.84414497       -2.46353931
 C            0.72583261        1.82353947       -2.68375262
 C            2.40359750       -1.46962312       -2.84973726
 C            1.48198235       -2.58340049       -3.00883814
 C            1.73329262       -0.26908854       -3.29984751
 C            0.29137252       -2.08308029       -3.66688821
 C            0.52048289       -0.68135220       -3.98421513
 C           -1.05164570       -3.21715293       -1.94315858
 C           -2.24719834       -2.75343845       -1.25669757
 C           -0.95217355       -2.48821222       -3.20138423
 C           -3.67387296       -0.78998900       -1.57719078
 C           -2.94347322       -1.82944659       -2.13570536
 C           -2.08528326       -1.57931624       -3.28399355
 C           -3.80627872        1.49890491       -1.09035228
 C           -2.82802786        2.55199031       -0.87883090
 C           -1.77896135        2.71945300       -1.78170022
 C           -3.59426677        0.54198287       -2.15817187
 C           -0.40908473        1.51404855       -3.42797513
 C           -0.55169540        0.19863870       -4.02845954
 C           -1.89520278       -0.27793760       -3.73608045
 C           -1.71159462        1.92786899       -2.93016727
 C           -2.63334819        0.81524686       -3.12212097
