   70
C70 / DATE: 7/ 1/2024 / Origin: Program Fullerene / C70 from database
 C            1.22180035        0.27065426        4.72955254
 C            2.47226693        0.03798849        4.03752614
 C            2.52180691       -1.37142710        3.69834784
 C            0.40266885       -0.92557224        4.58138537
 C            1.17862777       -1.90595111        3.84868007
 C           -0.88248305       -0.52090264        4.04669970
 C            0.41630585        1.40359840        4.32982299
 C           -0.93780310        0.92337278        4.11522011
 C            0.79113378        2.15760591        3.14555033
 C            2.76357933        0.78466863        2.82367228
 C            1.87525345        1.75485084        2.36023810
 C            3.16941344       -1.49038661        2.40442441
 C            3.34358917       -0.14582600        1.87144637
 C            2.73328329       -2.48925819        1.54821706
 C            0.59928847       -2.55989586        2.76442686
 C            1.44563412       -3.11570559        1.80609861
 C           -1.36270494       -1.14571580        2.90091583
 C           -0.73609792       -2.30267659        2.43280323
 C           -2.24303833       -0.45262746        2.06351000
 C           -1.47466423        1.63849323        2.97505688
 C           -0.44710425        2.53448040        2.48426510
 C           -2.21598604        0.94665601        2.03218399
 C           -0.40687888        2.80208317        1.12090995
 C            1.86520003        2.07207054        1.00137951
 C            0.84182920        2.88577426        0.51978444
 C            3.14742488        0.07876156        0.51138245
 C            2.60496400        1.29900377        0.09850717
 C            2.82437785       -2.27062394        0.11778928
 C            3.14416876       -1.00719623       -0.36768775
 C            0.90629877       -3.55969879        0.53214886
 C            1.74357816       -3.00679529       -0.51925018
 C           -1.31679183       -2.99434143        1.37470046
 C           -0.46408078       -3.58660528        0.35540299
 C           -2.89838933       -1.13897831        1.03781362
 C           -2.47058500       -2.42295136        0.69858712
 C           -3.65232217       -0.41099259        0.11756219
 C           -2.46884834        1.58794953        0.82759529
 C           -1.51096553        2.47304245        0.32365320
 C           -3.39409723        1.01163108       -0.02252181
 C           -1.45456367        2.75360123       -1.04855798
 C            0.90582917        3.34154013       -0.78456611
 C           -0.33404373        3.43431260       -1.53106898
 C            2.55645260        1.60409336       -1.26354578
 C            1.89608179        2.76078499       -1.67005652
 C            2.92874916       -0.77370033       -1.71896486
 C            2.78696607        0.58988648       -2.18936454
 C            1.16965102       -2.47755861       -1.67540078
 C            1.93364302       -1.58095380       -2.41214289
 C           -1.00780796       -3.21479387       -0.93620558
 C           -2.37932867       -2.81104195       -0.70355329
 C           -0.22160763       -2.49229414       -1.83433490
 C           -3.86293281       -0.95358632       -1.21212400
 C           -3.01408337       -2.03960088       -1.66028302
 C           -3.36886984        1.33584991       -1.43405880
 C           -2.34836249        2.13545596       -1.93807204
 C           -3.73457364        0.13383575       -2.16561750
 C           -2.00420580        1.96497594       -3.28174454
 C            0.01545851        3.37221400       -2.93597717
 C            1.37337523        2.85681625       -3.02461652
 C           -0.81562042        2.59283950       -3.82139101
 C            2.00400947        0.53043726       -3.41391409
 C            1.30035921       -0.74435823       -3.40967698
 C            1.34698338        1.66838262       -3.85709920
 C            0.00525266        1.53621756       -4.39614853
 C           -0.84277410       -1.64578942       -2.76495126
 C           -2.23737035       -1.54809408       -2.78705718
 C           -2.86187559       -0.31419586       -3.23519623
 C           -2.07175842        0.63396540       -3.86105913
 C           -0.08249170       -0.76997180       -3.54790077
 C           -0.71019352        0.28217343       -4.21315042
