   70
C70 / DATE: 7/ 1/2024 / Origin: Program Fullerene / C70 from database
 C            1.39836655        0.16705513        5.01236902
 C            0.63838550       -1.01851628        4.66724216
 C            1.55541334       -1.93784207        4.03473188
 C            2.63851144        0.12699041        4.25155645
 C            2.76422196       -1.19857724        3.69541438
 C            2.63101515        1.25930100        3.34668186
 C            0.64644053        1.31789735        4.55197917
 C            1.54922462        2.13340646        3.76621880
 C           -0.53984693       -0.60210453        3.92313699
 C           -0.57306819        0.84848846        3.91179623
 C           -0.89158669       -1.27962728        2.76093889
 C            1.11739406       -2.60413725        2.82861660
 C           -0.18581508       -2.42595859        2.37493049
 C            2.96489977       -1.33849489        2.26483715
 C            2.17429067       -2.47398048        1.84882001
 C            2.84985120        1.07421936        1.97780702
 C            2.97836652       -0.21939546        1.44090182
 C            2.56768627        2.14247279        1.12209493
 C            0.98297239        2.95239438        2.80826954
 C            1.68388989        3.12857945        1.54974571
 C           -1.00358748        1.50903706        2.76079478
 C           -0.41340834        2.73218664        2.46084302
 C           -1.66848449       -0.61458198        1.81024635
 C           -1.61554345        0.78132689        1.72983296
 C           -2.18387685       -1.34830153        0.74583890
 C           -0.47701217       -2.96426281        1.12757940
 C           -1.70010954       -2.64422219        0.55349979
 C            1.78975038       -2.57656449        0.52016265
 C            0.59769435       -3.24232657        0.27790714
 C            2.79751202       -0.41755426        0.07096012
 C            2.16940009       -1.58415821       -0.39175276
 C            2.79829329        1.99999496       -0.24133122
 C            2.95698019        0.66355780       -0.78328548
 C            2.01073944        2.77418851       -1.19312092
 C            0.70247308        3.64906898        0.61874558
 C           -0.60790901        3.30155408        1.14918908
 C            0.90927537        3.51313771       -0.74894796
 C           -1.97143251        1.42379206        0.53143415
 C           -1.52809912        2.73098068        0.28513910
 C           -2.82619153       -0.68132032       -0.29811071
 C           -2.58833782        0.68661439       -0.49256790
 C           -3.46741698       -1.43078404       -1.28226969
 C           -2.08923750       -3.37036162       -0.56398461
 C           -3.09455498       -2.82108996       -1.44868192
 C            0.33074348       -3.59475333       -1.03357472
 C           -1.03527859       -3.92613816       -1.38811090
 C            1.61311529       -1.61589266       -1.68243168
 C            0.86312665       -2.72670241       -2.06922409
 C            2.33741289        0.63284591       -2.09470796
 C            1.92688799        1.98656274       -2.41862002
 C            1.51673727       -0.43866881       -2.42710054
 C            0.86394939        2.17686452       -3.28595616
 C           -0.21315728        3.61727252       -1.56485401
 C           -1.49664397        3.19933398       -1.01811925
 C           -0.14408559        3.15555450       -2.93575267
 C           -2.80618150        1.27080756       -1.75390144
 C           -2.21481792        2.49111921       -2.04813862
 C           -1.44054715        2.59903215       -3.27352629
 C           -3.60058163       -0.88024636       -2.61065752
 C           -3.11863870        0.46134334       -2.84164301
 C           -2.61898495       -2.99231243       -2.81542546
 C           -1.25498171       -3.47451095       -2.74644201
 C           -0.16443947       -2.57032041       -3.08390812
 C           -2.86769231       -1.75297505       -3.51514281
 C            0.46818801       -0.26121323       -3.34157697
 C            0.17572304        1.01550683       -3.82796997
 C           -1.21445393        1.38959955       -4.03926309
 C           -2.17285499        0.39505492       -3.94787687
 C           -0.44360121       -1.29604045       -3.57102982
 C           -1.73647254       -0.98320594       -4.00125492
