   70
C70 / DATE: 7/ 1/2024 / Origin: Program Fullerene / C70 from database
 C            1.09621894        0.03723281        4.58918151
 C            2.31501794       -0.34806721        3.91808978
 C            2.21571220       -1.76874111        3.62620334
 C            0.26332506       -1.15396569        4.68988267
 C            0.81913736       -2.12699057        3.77476650
 C           -1.10371253       -0.73518821        4.49999744
 C            0.27375142        1.06918606        3.99212882
 C           -1.08254483        0.70876157        4.32657565
 C            0.54222079        1.51164830        2.69297168
 C            2.65649594        0.30837662        2.67495159
 C            1.77453194        1.21586756        2.08906899
 C            2.84519159       -1.99342630        2.34050110
 C            3.26930269       -0.69715772        1.83031754
 C            2.23300706       -2.87158122        1.45991010
 C            0.10302814       -2.51419901        2.63749691
 C            0.80502829       -3.13004089        1.60498884
 C           -1.84244832       -1.27393295        3.37515580
 C           -1.16869399       -1.97710578        2.38034628
 C           -2.11020515        1.02666742        3.36918337
 C           -2.74786852       -0.22015741        2.97685907
 C           -0.49976050        2.05865589        1.92034366
 C           -1.83085893        1.93650377        2.35855259
 C           -0.22421074        2.50523522        0.61850712
 C            1.96341620        1.52833253        0.74683275
 C            1.07944207        2.40457258        0.12896782
 C            3.26468194       -0.48865260        0.45628170
 C            2.82936937        0.74670385       -0.02962225
 C            2.50528763       -2.71726755        0.04554956
 C            3.20733477       -1.59758250       -0.38795375
 C            0.22661066       -3.18007759        0.27588659
 C            1.30999339       -3.10128707       -0.68584812
 C           -1.65857931       -1.90990481        1.06843305
 C           -0.94305625       -2.49062531        0.01592794
 C           -3.31243163       -0.25507636        1.71022018
 C           -2.84659965       -1.21410559        0.79876393
 C           -2.85894491        2.11445853        1.44480211
 C           -3.73268550        0.97695396        1.21913881
 C           -1.26607732        2.79667578       -0.27049472
 C           -2.58040519        2.69881581        0.15472079
 C           -1.01438809        2.79755342       -1.64063101
 C            1.36787602        2.85439689       -1.15522336
 C            0.26793825        3.11251801       -2.06674417
 C            2.98371499        1.02541370       -1.38725802
 C            2.41872020        2.19008829       -1.90677570
 C            3.24836547       -1.37609830       -1.75644058
 C            3.36967186       -0.01343495       -2.23569207
 C            1.09274764       -2.50560850       -1.92611761
 C            2.21936699       -2.00310844       -2.57009803
 C           -1.21951040       -2.12758261       -1.29847271
 C           -0.16651284       -1.95003817       -2.20708519
 C           -3.34628433       -1.21603692       -0.50687184
 C           -2.47663102       -1.62105317       -1.59916318
 C           -4.25299606        1.07177260       -0.12456622
 C           -3.57025212        2.18069126       -0.77374057
 C           -4.13520562       -0.08902230       -0.97708992
 C           -1.82767501        2.02924089       -2.47979248
 C           -2.59541306       -0.63587949       -2.65930287
 C           -3.12026992        1.72326060       -2.07397838
 C           -3.57039372        0.35341056       -2.23876927
 C           -0.32905659       -1.04775571       -3.27183843
 C           -1.21836054        1.17895765       -3.39845337
 C           -1.43056337       -0.19704652       -3.27328636
 C            0.68125407        2.69297104       -3.39510354
 C            2.06855673        2.27409017       -3.31610487
 C           -0.06899049        1.62944510       -4.03593606
 C            2.92597070       -0.03926594       -3.61877904
 C            2.06345140       -1.20249079       -3.76290783
 C            0.74307876       -0.72482022       -4.09736555
 C            2.21767887        1.10256623       -4.15405877
 C            0.88508912        0.65335077       -4.52993974
