   70
C70 / DATE: 7/ 1/2024 / Origin: Program Fullerene / C70 from database
 C            1.48929253        0.09127680        4.85021747
 C            0.68647373       -1.11205182        4.73355322
 C            1.26128330       -1.93649464        3.68493604
 C            2.56611727       -0.00330818        3.88090603
 C            2.52837352       -1.33134627        3.30283011
 C            2.47362929        1.13770743        2.98568968
 C            0.64972455        1.21235874        4.46883695
 C            1.27952319        1.87809261        3.35211100
 C           -0.69673080       -0.70415001        4.59935563
 C           -0.70093622        0.72336447        4.29404120
 C           -1.54544448       -1.53072013        3.88099165
 C            0.41559813       -2.45981850        2.70226381
 C           -0.95918413       -2.47875463        2.93820456
 C            0.89880593       -2.65927043        1.40303124
 C            2.96096130       -1.47571151        1.99803082
 C            2.22815860       -2.36428994        1.11970797
 C            2.75377120        0.95247447        1.62825922
 C            3.25752151       -0.28019077        1.21986732
 C            2.12654191        1.78093461        0.68605099
 C            0.48911680        2.35686461        2.32455154
 C            1.12287201        2.64605287        1.12776594
 C           -1.45323480        1.18807299        3.21294834
 C           -0.88581245        2.08514906        2.29776909
 C           -2.68590642       -0.92160347        3.22681508
 C           -2.58836589        0.47308794        2.84104847
 C           -1.87209952       -2.61134251        1.81959570
 C           -2.97262350       -1.68981260        2.03130251
 C            0.01196483       -2.86477863        0.33933001
 C           -1.36339032       -2.71841904        0.53504064
 C            0.49726761       -2.89355813       -0.97453877
 C            2.59320851       -1.99344670       -0.23170680
 C            3.16241525       -0.65959051       -0.17368956
 C            1.71723254       -2.27416228       -1.26801228
 C            2.25604588        1.51230828       -0.68657651
 C            2.73267611        0.26569738       -1.11110126
 C            1.67726206        2.38356459       -1.62297361
 C            0.42313415        3.41048847        0.21432168
 C            0.80759642        3.37703644       -1.17959817
 C           -1.60255613        2.43553867        1.14814225
 C           -1.02610333        3.36205177        0.28171248
 C           -3.09178235        0.58642517        1.48280195
 C           -3.29428687       -0.75544084        0.96541227
 C           -2.54567074        1.53894651        0.63742617
 C           -2.13775586       -2.22997727       -0.51277608
 C           -2.84478444       -1.04482114       -0.31943529
 C           -0.42674531       -3.07418705       -2.00393848
 C           -1.77468801       -2.57754682       -1.80036954
 C           -0.04998567       -2.73921430       -3.36721131
 C            1.83699120       -1.52443865       -2.43925066
 C            2.34398732       -0.21852267       -2.35535567
 C            1.14751885       -1.95410139       -3.56868920
 C            1.65702761        2.03070636       -2.97678777
 C            2.10550259        0.70699647       -3.36148707
 C            0.48076450        2.34432194       -3.78516824
 C           -0.38815705        3.66329527       -1.94949288
 C           -1.52928015        3.46413314       -1.07478781
 C           -0.61997448        2.90167229       -3.15606174
 C           -2.60988528        1.31574792       -0.73996165
 C           -2.65667321        0.00569862       -1.22315415
 C           -2.29700228        2.35544766       -1.60059288
 C           -1.78616661        2.05433252       -2.92391530
 C           -2.03701734       -1.62899816       -2.86346482
 C           -1.15301114       -1.99026894       -3.95096166
 C           -2.22799604       -0.28815579       -2.52491843
 C           -1.76602352        0.73408540       -3.37149096
 C            0.86272008       -1.02724159       -4.64500647
 C            1.37761724        0.32115118       -4.55285512
 C            0.24752823        1.22392152       -4.67325398
 C           -0.58617454       -0.93703223       -4.75896104
 C           -0.95077690        0.43376333       -4.46732389
