   70
C70 / DATE: 7/ 1/2024 / Origin: Program Fullerene / C70 from database
 C            1.45101061        0.17042472        4.61824435
 C            0.65410064       -1.03573197        4.49898519
 C            1.35928297       -1.95880950        3.62858550
 C            2.60802689        0.02553095        3.75193721
 C            2.57835788       -1.30056592        3.17585560
 C            2.63317444        1.15397465        2.84791586
 C            0.65519163        1.27206324        4.10736613
 C            1.42333691        1.92632326        3.07084030
 C           -0.69243075       -0.64386104        4.13731104
 C           -0.65563981        0.76112615        3.76116460
 C           -1.43265540       -1.51318642        3.35577066
 C            0.62955578       -2.72499846        2.71983027
 C           -0.76435324       -2.64167913        2.71592223
 C            1.28691336       -3.22309137        1.59873133
 C            2.96847924       -1.46083316        1.85108081
 C            2.53605221       -2.60394764        1.18563301
 C            3.03422354        0.94822341        1.53140204
 C            3.37509092       -0.34548151        1.10641252
 C            2.65945337        1.90252289        0.58300034
 C            0.75981172        2.40842057        1.95250149
 C            1.52182628        2.67887481        0.82264148
 C           -1.22775403        1.15839800        2.55271991
 C           -0.60903404        2.15602809        1.79317222
 C           -2.35683238       -0.95977143        2.38487707
 C           -2.20566499        0.35724262        1.96031199
 C           -1.51098070       -2.95546011        1.50493308
 C           -2.59384194       -1.98668629        1.39314356
 C            0.53755234       -3.55694496        0.39665105
 C           -0.84086004       -3.36775205        0.35485995
 C            2.62006498       -2.68049388       -0.26319409
 C            1.34043169       -3.16474406       -0.75186822
 C            3.78797950       -0.53806954       -0.21168589
 C            3.26691943       -1.67175648       -0.95604702
 C            3.20031697        1.83452682       -0.69622162
 C            3.81505675        0.59372907       -1.12053545
 C            2.44026569        2.34144474       -1.82337020
 C            0.91820659        3.37891913       -0.21263380
 C            1.37059113        3.18740460       -1.58153853
 C           -1.24781231        2.62582894        0.64422487
 C           -0.53224567        3.44357910       -0.22998936
 C           -2.72948479        0.72403287        0.72032138
 C           -2.39030229        1.96972715        0.18308140
 C           -3.02259706       -1.59891911        0.13362537
 C           -3.32509288       -0.25616332       -0.08782620
 C           -1.44992063       -3.17170077       -0.88315074
 C           -2.67289143       -2.39273312       -0.95190862
 C            0.71690450       -2.53519621       -1.82574972
 C           -0.63158320       -2.78655259       -2.02448287
 C            2.64899673       -1.14992149       -2.16215276
 C            3.16666744        0.18469269       -2.35880121
 C            2.24516864        1.23199877       -2.73920963
 C            1.29893567       -1.40016691       -2.39619495
 C            0.94742867        0.90343538       -3.11635608
 C            0.49295370       -0.41951977       -2.99914295
 C            0.18321522        3.06734176       -2.41166636
 C           -0.93981262        3.54293801       -1.61916449
 C            0.02034418        1.93832188       -3.21581886
 C           -3.00353846        2.40826678       -0.98917817
 C           -2.21452910        3.13400922       -1.97279875
 C           -3.86765696        0.09905736       -1.31891727
 C           -3.86668667        1.49360581       -1.71033887
 C           -2.75666795       -1.83830249       -2.29115821
 C           -1.41307482       -1.88962807       -2.85300364
 C           -0.82833390       -0.72501018       -3.34684364
 C           -3.51372844       -0.69426909       -2.48763264
 C           -1.23922165        1.66551657       -3.73012052
 C           -2.36643318        2.43924473       -3.23616677
 C           -3.50863957        1.55560645       -3.11731963
 C           -1.66183070        0.28119819       -3.83499826
 C           -3.07975662        0.22836866       -3.51586780
