   70
C70 / DATE: 7/ 1/2024 / Origin: Program Fullerene / C70 from database
 C            1.62255432       -0.01784199        4.56075273
 C            0.80828861       -1.21331881        4.46729367
 C            1.23364715       -1.96368751        3.29772783
 C            2.57760544       -0.05423030        3.47107009
 C            2.37068001       -1.27259361        2.71474789
 C            2.47037766        1.19694098        2.75725505
 C            0.75002056        1.12486344        4.34085865
 C            1.24988777        1.85238785        3.19372924
 C           -0.57650327       -0.80047061        4.54576267
 C           -0.61055146        0.63862817        4.30241968
 C           -1.52099424       -1.59461638        3.91501559
 C            0.26202784       -2.49153199        2.45180525
 C           -1.07273824       -2.51237225        2.87284573
 C            0.55011502       -2.64418277        1.09287773
 C            2.47069002       -1.20157976        1.32968673
 C            1.70640556       -2.06430342        0.55355544
 C            2.72300820        1.19195912        1.39862586
 C            2.94327416       -0.02589678        0.74602701
 C            2.17828583        2.22595329        0.65772859
 C            0.35432391        2.29266003        2.21697313
 C            0.86723201        2.61189025        0.95008856
 C           -1.48252731        1.14190658        3.33866616
 C           -1.01790615        2.04935477        2.37297154
 C           -2.73165985       -0.95577552        3.43685083
 C           -2.67784001        0.45831157        3.12098867
 C           -2.13120579       -2.60422622        1.87911786
 C           -3.16609334       -1.65490000        2.24099996
 C           -0.46629988       -3.06345893        0.23720735
 C           -1.77834010       -2.71558807        0.54287594
 C           -0.15358472       -3.37347263       -1.07826606
 C            1.89831482       -2.06523068       -0.82771352
 C            1.10759436       -2.90038404       -1.61619209
 C            3.14328838        0.00868929       -0.63650941
 C            2.64558476       -1.04192923       -1.42401189
 C            2.68378863        2.40184025       -0.61653641
 C            3.35668489        1.26484329       -1.20961657
 C            1.83675506        2.97220013       -1.63955899
 C            0.00144468        2.98308774       -0.08709013
 C            0.47048087        3.04912449       -1.40326712
 C           -1.89803926        2.50779359        1.39735611
 C           -1.36962276        3.02066933        0.14510926
 C           -3.40446578        0.64751134        1.87944260
 C           -3.55781696       -0.65873537        1.25953280
 C           -3.08322674        1.72676378        1.07894514
 C           -2.53675365       -2.03687254       -0.41347180
 C           -3.15764146       -0.83869254       -0.06285354
 C           -1.17213466       -3.15501712       -2.08833639
 C           -2.28849336       -2.29099826       -1.75384181
 C            0.90279513       -2.59577523       -3.02424226
 C           -0.52575510       -2.62099365       -3.27148558
 C            2.70058355       -0.96640585       -2.81859418
 C            1.64502062       -1.57962021       -3.59899136
 C            3.30742767        1.44000600       -2.64519541
 C            2.32107338        2.47498754       -2.91970387
 C            2.99841218        0.29603709       -3.46818077
 C            0.94496961       -0.49438436       -4.27310336
 C            1.37052286        1.94173571       -3.87779240
 C            1.85241585        0.63970482       -4.29823144
 C           -0.41517573        2.85288878       -2.46391472
 C            0.01501569        2.11549680       -3.64170277
 C           -2.27891656        2.60703596       -0.91097310
 C           -3.10671450        1.55489511       -0.36073761
 C           -3.03041339        0.27230246       -0.90368584
 C           -1.78304955        2.45385703       -2.19242578
 C           -2.28182703       -1.17456890       -2.68237263
 C           -1.19038530       -1.37941064       -3.62564572
 C           -0.41452385       -0.29405367       -4.02399927
 C           -0.90196567        0.99557291       -3.81143288
 C           -2.54406712        0.10669597       -2.20554563
 C           -2.01336427        1.19852436       -2.89168902
