   70
C70 / DATE: 7/ 1/2024 / Origin: Program Fullerene / C70 from database
 C            1.06792043        0.07796521        4.62255092
 C            2.28840924       -0.29792118        3.94673991
 C            2.22002807       -1.72742651        3.69507442
 C            0.24755379       -1.11984172        4.74307888
 C            0.83661992       -2.12076320        3.87928501
 C           -1.12383749       -0.73080083        4.51379511
 C            0.23384965        1.10061116        4.02751487
 C           -1.13223655        0.70698648        4.29445337
 C            0.53790510        1.60542524        2.76294117
 C            2.60841656        0.33769739        2.68552162
 C            1.74207489        1.27950897        2.12525465
 C            2.83417435       -1.97704278        2.40534538
 C            3.16637826       -0.68698844        1.82251475
 C            2.25810206       -2.93283595        1.58724892
 C            0.13030876       -2.60642099        2.77548905
 C            0.85522305       -3.27840506        1.79468730
 C           -1.83486413       -1.32308192        3.39887270
 C           -1.13899042       -2.09134162        2.46210843
 C           -2.12668418        0.97286519        3.27590637
 C           -2.74233521       -0.29530536        2.92820469
 C           -0.47813215        2.20155864        2.01762473
 C           -1.81685585        1.84548586        2.24154590
 C           -0.14839148        2.86376931        0.83891556
 C            1.89070174        1.57719087        0.76698121
 C            1.00697176        2.47147997        0.15081300
 C            3.04887323       -0.50706365        0.44946996
 C            2.71237595        0.75901882       -0.01372577
 C            2.46015046       -2.82727334        0.15631603
 C            2.86006995       -1.60973267       -0.39299528
 C            0.26663318       -3.48659107        0.48672909
 C            1.36499500       -3.54380627       -0.46211273
 C           -1.64282415       -2.18951588        1.15535146
 C           -0.88646674       -2.78941364        0.14840714
 C           -3.28521569       -0.42579490        1.65996048
 C           -2.79568061       -1.49072104        0.80219499
 C           -2.71350213        1.91690480        1.17890438
 C           -3.41242685        0.76257381        0.82848846
 C           -1.18177046        3.49394295        0.15856688
 C           -2.48965680        2.87360171        0.20026019
 C           -0.96994461        3.96555699       -1.19165316
 C            1.19037747        2.81066269       -1.19961101
 C            0.25744123        3.60524045       -1.86183975
 C            2.85539178        1.01444729       -1.36466793
 C            2.11133704        2.10078479       -1.96556344
 C            2.65663251       -1.39532356       -1.76170626
 C            2.83756097       -0.11148893       -2.28029530
 C            1.09810583       -3.29263401       -1.79442559
 C            1.94665075       -2.34727987       -2.49740813
 C           -1.12677644       -2.47152184       -1.19349318
 C           -0.26342993       -2.96325376       -2.16915794
 C           -2.96225940       -1.05761468       -0.57486690
 C           -3.40221364        0.32601222       -0.55975384
 C           -2.02977404       -1.45498192       -1.51896801
 C           -2.82475366        2.54947351       -1.17281889
 C           -2.07329712        3.46924752       -2.00280982
 C           -2.93441951        1.20589418       -1.53097331
 C           -0.09710679        3.27715795       -3.23230362
 C           -1.52114287        2.98554068       -3.24676231
 C            1.76687023        1.70547569       -3.32435171
 C            2.13621806        0.30848772       -3.48713324
 C            0.57979767        2.16639410       -3.87925878
 C            1.20722680       -1.94580182       -3.68125370
 C           -0.18955716       -2.29243080       -3.45239395
 C            1.25188973       -0.56183025       -4.11057891
 C           -1.80338710       -0.64081496       -2.63158493
 C           -2.18838635        0.70516719       -2.60752712
 C           -1.65727062        1.57897809       -3.56042881
 C           -0.44471849        1.20482034       -4.26541285
 C           -0.97398692       -1.09203593       -3.65566383
 C           -0.12093994       -0.14082746       -4.34361700
