   70
C70 / DATE: 7/ 1/2024 / Origin: Program Fullerene / C70 from database
 C            1.52309564        0.12456934        5.00857059
 C            0.73602298       -1.09381330        5.00749349
 C            1.49202886       -2.10239277        4.29128515
 C            2.63601419       -0.06415803        4.08965618
 C            2.64425173       -1.44906464        3.68657920
 C            2.53692402        0.95290647        3.05943873
 C            0.68977992        1.18556584        4.47344949
 C            1.43136338        1.82121791        3.41148831
 C           -0.60028833       -0.76386276        4.54090900
 C           -0.60805954        0.63494810        4.14226593
 C           -1.28138501       -1.67743115        3.75335532
 C            0.82052060       -2.86692328        3.25401855
 C           -0.55954100       -2.79160280        3.14086986
 C            2.62423523       -1.74970364        2.27111252
 C            1.62169140       -2.77362688        2.04730488
 C            2.69367542        0.61807773        1.70773250
 C            2.74431358       -0.73159747        1.32553062
 C            2.28954813        1.57412064        0.75726714
 C            0.72726022        2.36256704        2.35612326
 C            1.44728139        2.59818022        1.19981857
 C           -1.18910918        1.00579159        2.92584851
 C           -0.63293298        2.06627629        2.20801841
 C           -2.20433680       -1.17509907        2.75491850
 C           -2.05865178        0.12750790        2.27431734
 C           -1.16420190       -3.02821475        1.84189535
 C           -2.39180818       -2.25560143        1.81116659
 C            1.00350747       -2.81024127        0.80069438
 C           -0.36490176       -3.06864984        0.69664211
 C            2.44330628       -1.05350480        0.00925901
 C            1.63325274       -2.16286078       -0.25424577
 C            2.32027824        1.24667573       -0.60872439
 C            2.58285161       -0.07464973       -0.96352491
 C            1.77315562        2.13078196       -1.55338997
 C            0.84994067        3.43558224        0.28139109
 C            1.22187694        3.32881389       -1.10732320
 C           -1.25409412        2.49382759        1.03402518
 C           -0.59771839        3.49523434        0.32207104
 C           -2.51503705        0.43055136        0.98530657
 C           -2.07795440        1.59415844        0.34197647
 C           -2.93558986       -1.95671870        0.58016075
 C           -3.16034522       -0.56079432        0.24496842
 C           -0.98146229       -2.91278255       -0.54954905
 C           -2.33115501       -2.55526351       -0.59049948
 C            1.14545162       -2.34971180       -1.54097992
 C           -0.19730026       -2.72205872       -1.69407661
 C            2.49917445       -0.46746719       -2.29063042
 C            1.83514046       -1.72452771       -2.57747850
 C            1.57321383        1.71848767       -2.88017690
 C            2.07565658        0.48959580       -3.29093951
 C            0.59107464        2.32383809       -3.67008891
 C            0.13566403        3.94319267       -1.84346534
 C           -1.04964695        3.84447209       -1.00431689
 C           -0.20783211        3.40753672       -3.13706221
 C           -2.29506098        1.74927827       -1.03933662
 C           -1.96703164        2.94768337       -1.66467951
 C           -1.57968081        2.92282589       -3.05991169
 C           -3.17477698       -0.47846755       -1.20626488
 C           -2.83047292       -1.79625200       -1.71844821
 C           -2.64555690        0.64620693       -1.82412087
 C           -0.84997926       -2.53184026       -2.91528320
 C           -2.14884332       -1.88479554       -2.91706938
 C            1.25137391       -1.63085771       -3.89755353
 C            1.37982966       -0.25008007       -4.33642909
 C           -0.12409351       -2.03255680       -4.06871796
 C           -0.33244851        1.48564906       -4.41122417
 C           -1.62615051        1.65868647       -3.76751892
 C           -2.22419391        0.55986695       -3.15886547
 C           -2.01997877       -0.69326557       -3.73315358
 C            0.07118026        0.20767238       -4.77167829
 C           -0.86231557       -0.89190860       -4.59020165
