   70
C70 / DATE: 7/ 1/2024 / Origin: Program Fullerene / C70 from database
 C            1.15319440        0.20753798        5.65175947
 C            2.42723546       -0.15676351        5.07225383
 C            2.38811723       -1.57414898        4.74059045
 C            0.32973858       -0.98675053        5.68174538
 C            1.02530046       -2.02757021        4.93904120
 C           -1.00842157       -0.60927169        5.27038938
 C            0.37358923        1.26463855        5.02792835
 C           -0.99042775        0.79721242        4.88813805
 C            0.91006675        2.01874710        3.99363020
 C            2.86811699        0.54912204        3.89417883
 C            2.16212785        1.67711664        3.44046618
 C            3.00880060       -1.76207382        3.43752519
 C            3.35631910       -0.45398046        2.92353128
 C            2.45322463       -2.68211676        2.55778892
 C            0.36552790       -2.68072636        3.89934603
 C            1.09626689       -3.15773395        2.80119858
 C           -1.72783293       -1.49699169        4.49353929
 C           -1.02544542       -2.57807098        3.80653398
 C           -2.72644026       -0.96978624        3.58458919
 C           -1.74309548        1.22511386        3.78856600
 C           -2.75852904        0.39852336        3.30165163
 C            0.02009626        2.78973241        3.22345714
 C           -1.28446826        2.30301815        3.01045582
 C            0.58512920        3.64025400        2.28310554
 C            2.34678766        1.97413772        2.11022623
 C            1.74360320        3.11587291        1.59244153
 C            3.16303663       -0.20943394        1.56583526
 C            2.33187812        0.86519981        1.28064297
 C            2.62027764       -2.48839366        1.11377969
 C            3.12176421       -1.27279268        0.63534865
 C            0.43815526       -3.29039801        1.51186371
 C            1.41076341       -3.00476420        0.45742380
 C           -1.66361133       -2.75602562        2.51511096
 C           -2.86151987       -1.92264026        2.49759540
 C           -0.86231267       -2.81431620        1.38179623
 C           -3.33524152       -1.45714949        1.28008371
 C           -3.54230190        0.83257086        2.23746479
 C           -3.95408567       -0.14181759        1.24713601
 C           -2.07404553        2.77559410        1.93504948
 C           -3.18546896        2.05198914        1.53067853
 C           -0.27051041        4.27081616        1.25691512
 C           -1.59424707        3.74419282        1.05447352
 C            1.19040955        2.91994862        0.29943084
 C            0.40673645        4.08104092       -0.00962654
 C            1.15696554        0.60959888        0.59040991
 C            0.54981506        1.70727405        0.11590925
 C            2.51859777       -0.87227613       -0.55274756
 C            1.19557143       -0.48351912       -0.21544910
 C            0.95785729       -2.32591085       -0.67943334
 C            1.92049439       -1.76175922       -1.44204776
 C           -1.14810670       -1.94609351        0.33983202
 C           -2.44383472       -1.53218609        0.13829404
 C           -0.12029647       -1.43558573       -0.43876393
 C           -3.69729584        0.42952765       -0.06059088
 C           -3.42195787        1.85295895        0.09960134
 C           -2.66053906       -0.36881107       -0.67294969
 C           -1.81831675        3.57762943       -0.39703201
 C           -0.55316033        3.83699124       -1.08434369
 C           -2.55349192        2.45370267       -0.82949980
 C           -0.26693305        1.62661958       -0.95714107
 C           -0.15588161        2.74948835       -1.82913075
 C            0.23716761       -0.78637214       -1.32857120
 C            1.25688690       -0.84069497       -2.35202843
 C           -0.62907545        0.37606665       -1.68914618
 C           -0.21380032       -0.06545748       -0.94494643
 C           -1.59180918        0.33071225       -1.20180951
 C           -1.94980826        1.56730477       -1.75410723
 C           -1.00591959        2.03009719       -2.62518161
 C            0.75120157        0.37592694       -1.93295151
 C           -0.10898261        0.90138634       -2.91290140
