   70
C70 / DATE: 7/ 1/2024 / Origin: Program Fullerene / C70 from database
 C            1.27756310       -0.09833701        4.19931738
 C            2.55488478       -0.41632167        3.60623826
 C            2.45806888       -1.75406313        3.03659318
 C            0.44449253       -1.28393169        4.09458096
 C            1.07975063       -2.17662495        3.15158378
 C           -0.90145365       -0.84151160        3.80020115
 C            0.51716115        1.01001901        3.65669363
 C           -0.87403086        0.60697031        3.65100854
 C            1.00135107        1.72035183        2.56656122
 C            3.07136858        0.44920158        2.56621738
 C            2.30787548        1.51766201        2.09467105
 C            3.06166744       -1.70704183        1.72058286
 C            3.71608511       -0.41678535        1.60195493
 C            2.36053349       -2.20027912        0.62439480
 C            0.37700601       -2.51932909        2.00279347
 C            1.05450593       -2.68997964        0.78749366
 C           -1.66813579       -1.56750595        2.89563275
 C           -1.01871686       -2.44530684        2.01524002
 C           -2.86619000       -0.97788622        2.50488341
 C           -1.75438258        1.17994567        2.73429786
 C           -2.92851157        0.47373217        2.49288536
 C            0.09322800        2.44194303        1.79630406
 C           -1.24821484        2.03884966        1.74172830
 C            0.58340754        3.34738793        0.86574111
 C            2.70355028        2.13377888        0.90543785
 C            1.95749735        3.20330004        0.42105235
 C            3.95502238        0.08558234        0.33421613
 C            3.56781145        1.45660701        0.03987582
 C            2.82123585       -1.87070541       -0.65096148
 C            3.58918795       -0.71939961       -0.82065767
 C            2.16832841       -2.38684530       -1.76153041
 C            0.36695667       -3.20489048       -0.31589874
 C            0.97262284       -3.18211632       -1.56875842
 C           -1.72594202       -3.02041623        0.96656407
 C           -1.01028615       -3.41157732       -0.23559286
 C           -3.57962546       -1.46674625        1.33856048
 C           -2.99795450       -2.45001927        0.55565179
 C           -3.79538458        0.87483261        1.41206156
 C           -4.19498440       -0.32350392        0.68814645
 C           -2.03352885        2.39018780        0.62820757
 C           -3.29286678        1.82357590        0.44681411
 C           -0.22859836        3.68690675       -0.28545853
 C           -1.44687304        3.04447694       -0.45602422
 C            2.00347219        3.51567374       -0.99719645
 C            0.65580862        3.83289393       -1.42938696
 C            3.37216912        1.54498314       -1.40063016
 C            3.25578294        0.18939158       -1.90649188
 C            2.54578381        2.52959380       -1.91225326
 C            1.93623736       -1.51090236       -2.90063005
 C            2.21517462       -0.15532398       -2.76463788
 C            0.14816503       -3.01484157       -2.75337938
 C            0.70788660       -1.92494956       -3.53566246
 C           -1.85866629       -3.09063486       -1.37703988
 C           -2.95264860       -2.27598396       -0.88777119
 C           -1.27005990       -2.76405506       -2.58597994
 C           -3.93662041       -0.08926531       -0.72280836
 C           -3.65407702        1.32632878       -0.86801409
 C           -3.18640869       -1.01720567       -1.44373210
 C           -1.88460632        2.75575524       -1.75025917
 C           -2.91204162        1.74902961       -1.95525222
 C            0.37689261        3.06357618       -2.62813791
 C            1.48976089        2.15145049       -2.83795638
 C            1.24028363        0.80055192       -3.09418425
 C           -0.91270826        2.59925142       -2.82074161
 C           -0.32699370       -0.93753664       -3.73050439
 C           -1.56706458       -1.47388157       -3.18727004
 C           -2.46451162       -0.60169982       -2.56987252
 C           -2.36907131        0.75753851       -2.86983236
 C           -0.03549486        0.40792046       -3.53196207
 C           -1.11192685        1.27815432       -3.38771800
