   70
C70 / DATE: 7/ 1/2024 / Origin: Program Fullerene / C70 from database
 C            1.62940919        0.23888899        4.81713202
 C            0.78396082       -0.94030167        4.76702203
 C            1.42752759       -1.89975191        3.89453108
 C            2.62761980        0.11449524        3.76656564
 C            2.52833878       -1.21845612        3.22647979
 C            2.46356733        1.22862666        2.85921598
 C            0.80447081        1.38310749        4.49015956
 C            1.49925614        2.13445875        3.46306562
 C           -0.56677316       -0.52171487        4.44929267
 C           -0.53784758        0.90827227        4.19305185
 C           -1.32888751       -1.33657622        3.62959577
 C            0.64216390       -2.76138794        3.13393670
 C           -0.74499464       -2.55870153        3.08903996
 C            1.26947370       -3.38925390        2.06295247
 C            2.67625293       -1.41186353        1.85884463
 C            2.34410103       -2.67423347        1.39095721
 C            2.39432043        0.98577220        1.48438658
 C            2.57250790       -0.31524401        0.98523626
 C            1.85888158        1.97790354        0.65421956
 C            0.72717138        2.90151119        2.61322725
 C            1.14206141        3.01714097        1.23038836
 C           -1.18511182        1.43672643        3.07553030
 C           -0.70446715        2.64201580        2.57282625
 C           -2.13199189       -0.73357316        2.57884755
 C           -1.94563889        0.60425340        2.24036110
 C           -1.50257857       -2.88691580        1.88630419
 C           -2.27491821       -1.71279294        1.51668931
 C            0.47019456       -4.04415935        1.04806190
 C           -0.91343869       -3.64607604        0.88906253
 C            2.21321626       -2.89935742       -0.02933986
 C            1.14031418       -3.85253391       -0.22481830
 C            2.46878292       -0.53050070       -0.39492447
 C            2.28211354       -1.82318546       -0.89931872
 C            1.70089513        1.72850592       -0.70964705
 C            2.24640959        0.56100274       -1.23956823
 C            0.82374246        2.51768708       -1.48110575
 C           -0.00801029        3.52797934        0.52803388
 C           -1.17467183        3.10983153        1.28966307
 C           -0.07929139        3.38533871       -0.84595812
 C           -2.29372670        1.03165254        0.95044091
 C           -2.14952348        2.38397236        0.62100229
 C           -2.27720213       -1.27359487        0.19728643
 C           -2.48344945        0.07841689       -0.06625956
 C           -1.10723631       -3.26659164       -0.50169668
 C            0.13180573       -3.52864791       -1.21109337
 C           -1.81737351       -2.10814020       -0.82474993
 C            1.68904809       -1.96924598       -2.14939021
 C            0.46932734       -2.65083343       -2.22821733
 C            2.21317856        0.35324720       -2.61414950
 C            1.95526468       -0.99212107       -3.09870348
 C            0.66799149        2.24720105       -2.85091894
 C            1.46932342        1.27714812       -3.45163199
 C           -0.44983828        2.73738948       -3.53893560
 C           -1.35592424        3.49981106       -1.37218293
 C           -2.41950449        2.79369234       -0.67885682
 C           -1.54574007        3.29985591       -2.78504418
 C           -2.68386960        0.48454817       -1.38463278
 C           -2.93216741        1.83096179       -1.62574964
 C           -2.67593652        2.39531627       -2.93659261
 C           -1.65676303       -1.57523349       -2.10811300
 C           -0.57903224       -2.02297318       -2.88374306
 C           -2.28113980       -0.36570608       -2.42402057
 C            1.06579070       -0.88567297       -4.24123311
 C            0.96197945        0.51776900       -4.58538901
 C           -0.28107699       -1.39642620       -4.08526093
 C           -1.07936632        1.92826082       -4.56677639
 C           -2.36092907        1.50235779       -4.02602165
 C           -2.24226657        0.08811388       -3.74407985
 C           -0.39724907        0.74259490       -5.03335835
 C           -1.19252592       -0.40406085       -4.61192873
