   70
C70 / DATE: 7/ 1/2024 / Origin: Program Fullerene / C70 from database
 C            1.30969577       -0.02467643        5.59005364
 C            0.39596603       -1.14355140        5.74029792
 C            1.01940479       -2.31224442        5.14185020
 C            2.44161594       -0.47891794        4.80198862
 C            2.26075716       -1.88559799        4.52231919
 C            2.57789025        0.42242119        3.67536521
 C            0.63218750        1.00614132        4.81951920
 C            1.51004678        1.40139185        3.73534394
 C           -0.79758129       -0.84026493        4.97164664
 C           -0.68535453        0.52029505        4.46841226
 C            0.14924169       -2.78845966        4.07916641
 C           -0.99625737       -1.90667996        4.00485556
 C            2.22250832       -2.30142041        3.13325435
 C            0.95041914       -2.94888122        2.87771126
 C            2.88942107       -0.08520475        2.42185930
 C            2.70041664       -1.45117776        2.14729267
 C            2.78262966        0.79915123        1.35284667
 C            0.93607387        1.78916734        2.52488456
 C            1.72717399        1.72006688        1.37260700
 C           -1.14339324        0.77192247        3.17993226
 C           -0.45105049        1.68026162        2.37829450
 C           -1.44258030       -1.55006696        2.74164626
 C           -1.84941164       -0.23503820        2.53531003
 C            0.34542548       -2.71085272        1.64053310
 C           -0.97408472       -2.25928186        1.63347735
 C            2.41744151       -1.80561665        0.83173462
 C            1.16147806       -2.36392549        0.55807779
 C            3.24737233        0.34282270        0.13412222
 C            3.04654999       -1.06367845       -0.14862263
 C            2.91565412        1.06940406       -1.06810429
 C            1.17756409        2.17823729        0.16830296
 C            1.85565138        1.96807877       -1.04127149
 C           -1.00488815        1.98676587        1.13667349
 C           -0.17514774        2.51719435        0.15524072
 C           -2.41023870        0.05653177        1.30264262
 C           -2.15877856        1.30622051        0.73784918
 C           -1.57191499       -1.96466741        0.41310225
 C           -2.58142509       -1.01128146        0.43805535
 C            0.55768545       -2.14712207       -0.69172513
 C           -0.83561753       -2.10918900       -0.76730894
 C            2.58847896       -1.16100629       -1.51301447
 C            2.96888453        0.09150777       -2.13413308
 C            1.31982416       -1.67544566       -1.76529687
 C            2.36964499        0.41385958       -3.32936816
 C            1.24926443        2.30839987       -2.25641633
 C            1.70675540        1.69984518       -3.42852591
 C           -0.75782330        2.97258352       -1.01676280
 C            0.01019533        2.94445141       -2.24646428
 C           -2.71704961        1.58092546       -0.51599535
 C           -2.11242122        2.54579452       -1.32479985
 C           -3.28461807       -0.78209341       -0.72398660
 C           -3.52201231        0.59882016       -1.09555356
 C           -1.46435168       -1.79606598       -1.97832580
 C           -2.81327805       -1.43615321       -1.92094614
 C            0.69946853       -1.33061799       -2.97106780
 C            1.42187847       -0.53439114       -3.86828508
 C           -0.69303650       -1.43391392       -3.09237564
 C            0.83483987        1.59993218       -4.58848461
 C            0.74078955        0.18324943       -4.92418796
 C           -0.92688854        2.76130067       -3.34859191
 C           -2.24033599        2.49058033       -2.77652806
 C           -0.51518163        2.11837001       -4.51129570
 C           -3.77398939        0.60073919       -2.52644974
 C           -3.43667021       -0.72924170       -3.01977731
 C           -3.09144025        1.56170875       -3.36631039
 C           -1.32245615       -1.03265390       -4.27999616
 C           -0.64385132       -0.12117516       -5.17815590
 C           -1.37790408        1.13476680       -5.14257267
 C           -2.69483475       -0.57156916       -4.24436656
 C           -2.67442786        0.84921557       -4.56120213
