   70
C70 / DATE: 7/ 1/2024 / Origin: Program Fullerene / C70 from database
 C            1.57526342        0.09650070        4.39994420
 C            0.78096691       -1.10400271        4.22005098
 C            1.48148899       -1.96947387        3.29675899
 C            2.67287341        0.04517827        3.44971931
 C            2.61415238       -1.22338928        2.76326659
 C            2.62130495        1.24562709        2.65300529
 C            0.74230757        1.23264901        4.04729054
 C            1.44219185        1.99558500        3.04127597
 C           -0.56573625       -0.70449284        3.87649602
 C           -0.57715391        0.74113348        3.72332514
 C           -1.25807051       -1.46155823        2.94086399
 C            0.73379273       -2.74426923        2.41693909
 C           -0.66052756       -2.60964717        2.40123605
 C            1.38011491       -3.21457998        1.27776418
 C            2.85288612       -1.26898186        1.39116776
 C            2.47257142       -2.42827912        0.72738754
 C            2.90339993        1.17195127        1.29606547
 C            3.00065943       -0.07812567        0.65949308
 C            2.56014599        2.27781604        0.52829882
 C            0.71408500        2.59457861        2.02193792
 C            1.42529644        3.01211006        0.90315104
 C           -1.24324584        1.27800623        2.62624782
 C           -0.65518376        2.31373110        1.87972768
 C           -2.30381968       -0.85055038        2.25190711
 C           -2.27814527        0.53436933        2.06583505
 C           -3.16654319       -1.64155574        1.50161580
 C           -1.39926719       -3.39804320        1.52036661
 C           -2.74899920       -2.98869909        1.17045829
 C            0.60674172       -3.75133260        0.17093003
 C           -0.76383542       -3.88740445        0.30772545
 C            2.33513099       -2.42246004       -0.71364559
 C            1.14573506       -3.18998129       -1.05539613
 C            3.05279994       -0.12389139       -0.74503211
 C            2.61411964       -1.26538017       -1.42626154
 C            3.03919317        2.32322029       -0.77233400
 C            3.25485221        1.06313542       -1.45560783
 C            2.48538727        3.26863686       -1.71986951
 C            0.75999305        3.81169776       -0.01318779
 C            1.30798158        4.01529240       -1.33917533
 C           -1.35459324        2.85864683        0.78838616
 C           -0.67327146        3.64806022       -0.14150474
 C           -3.06967818        1.12202600        1.09066949
 C           -2.55800071        2.27961959        0.38476829
 C           -3.82193482       -1.08244110        0.33254618
 C           -3.78110855        0.29026807        0.13399899
 C           -2.91185303       -3.16240338       -0.26387893
 C           -1.61900656       -3.53477167       -0.81124397
 C           -3.58072324       -1.98330876       -0.78503861
 C            0.29034596       -2.70832200       -2.04523506
 C           -1.09653724       -2.80602461       -1.87910629
 C            2.06417001       -1.14620902       -2.69999856
 C            0.82017314       -1.84076829       -2.99830660
 C            2.72542362        1.20082369       -2.80520170
 C            2.17256521        2.53830086       -2.93442038
 C            2.01643063        0.14607399       -3.35365817
 C            0.25738287        3.71377969       -2.29850301
 C           -0.95831225        3.46179924       -1.55730621
 C            0.74692535        2.68048346       -3.18210545
 C           -2.78948800        2.06518668       -1.03573873
 C           -3.52517850        0.82484576       -1.19438342
 C           -1.78100401        2.40695508       -1.93015565
 C           -3.16427396       -1.46747981       -2.00587033
 C           -1.95053369       -1.98528185       -2.61815674
 C           -3.19234648       -0.03045084       -2.23302936
 C           -0.04603417       -0.91146873       -3.70436506
 C            0.63930568        0.36649816       -3.76736394
 C           -0.01568601        1.53156405       -3.36935816
 C           -1.31732727        1.45354866       -2.85135221
 C           -1.40509012       -0.93260364       -3.45444751
 C           -2.07564925        0.30793304       -3.10038233
