   70
C70 / DATE: 7/ 1/2024 / Origin: Program Fullerene / C70 from database
 C            1.24269582       -0.01044161        4.41367826
 C            2.55689593       -0.26664688        3.87497978
 C            2.52127175       -1.56261428        3.21135300
 C            0.42255408       -1.18206835        4.15048976
 C            1.14588618       -2.02750908        3.22971472
 C           -0.88824465       -0.71850739        3.75705984
 C            0.51005473        1.14716126        3.94045558
 C           -0.87395940        0.73674648        3.77127017
 C            1.07757352        2.00762806        3.00341723
 C            3.11724296        0.67959458        2.93330558
 C            2.39000500        1.80762370        2.54353180
 C            3.18889702       -1.41545962        1.92730695
 C            3.80578918       -0.10278841        1.92041311
 C            2.54266552       -1.86683569        0.77990877
 C            0.54554469       -2.37085333        2.02371074
 C            1.36089180       -2.59592013        0.91786511
 C           -1.55251825       -1.35422220        2.71676578
 C           -0.83122045       -2.17396487        1.83561620
 C           -2.70083296       -0.72987980        2.26114295
 C           -1.68939717        1.41892181        2.86748089
 C           -2.75095409        0.72450076        2.28908862
 C            0.22569410        2.87758806        2.32742269
 C           -1.19014986        2.55222149        2.22295000
 C            0.63615755        3.47716104        1.07100657
 C            2.85992310        2.53692927        1.45153442
 C            1.93482516        3.30122332        0.63286326
 C            4.09037643        0.49372750        0.70323359
 C            3.82019006        1.91282461        0.55574841
 C            2.86590310       -1.30890359       -0.46250123
 C            3.66256374       -0.16548844       -0.52220834
 C            2.11088512       -1.65931060       -1.58551445
 C            0.80854603       -3.19247662       -0.20117004
 C            1.28459396       -2.77721172       -1.50513359
 C           -1.41992918       -2.60887644        0.63810843
 C           -0.63493010       -3.30853007       -0.27878903
 C           -3.31759038       -1.17366929        1.03122497
 C           -2.67998505       -2.13297992        0.25236438
 C           -3.28010985        1.15781880        1.00755508
 C           -3.89678276       -0.00181391        0.39090489
 C           -1.61707369        2.86262519        0.86313830
 C           -0.45701058        3.32089703        0.12682821
 C           -2.53330687        2.03392311        0.22801733
 C           -0.21661084        2.79279921       -1.13600308
 C            2.16658583        2.94217560       -0.75562230
 C            3.37659059        2.14444937       -0.80728430
 C            3.32258185        0.86311489       -1.48716076
 C            1.09615060        2.56051538       -1.55895961
 C            1.89732883       -0.70577326       -2.58753719
 C            2.26603910        0.61812840       -2.35327562
 C            1.32626296        1.62924650       -2.56959951
 C            1.00991186       -0.96889687       -3.62747726
 C            0.19279069       -2.95109066       -2.44726503
 C           -0.99207121       -3.32024853       -1.68642941
 C            0.08375258       -2.08353224       -3.52345491
 C           -3.13397624       -2.32525008       -1.05315254
 C           -2.23641558       -2.84625156       -2.06893104
 C           -4.06798570       -0.01374303       -0.98295019
 C           -3.93886256       -1.28461534       -1.67076694
 C           -2.42819777        1.81099997       -1.14969575
 C           -1.27450713        2.21194078       -1.83820301
 C           -3.36437124        0.98362424       -1.77353218
 C            0.32507842        1.41955963       -3.50765827
 C            0.29268725        0.14978075       -4.20920243
 C           -1.03663008        1.75595935       -3.13377875
 C           -1.22778677       -1.62372194       -3.95589982
 C           -2.36412105       -2.01066621       -3.25476193
 C           -3.39921699       -1.02353400       -2.99246828
 C           -3.06906627        0.39129736       -3.06731857
 C           -1.09651908       -0.23762026       -4.37475089
 C           -1.92305329        0.77920873       -3.74299907
