   70
C70 / DATE: 7/ 1/2024 / Origin: Program Fullerene / C70 from database
 C            1.66465149        0.10348479        4.55055079
 C            0.87181425       -1.11104159        4.57283684
 C            1.48140772       -2.05351577        3.65574434
 C            2.64575730       -0.02431363        3.48376425
 C            2.55359503       -1.36130453        2.95306309
 C            2.46116346        1.07895584        2.57099069
 C            0.77869807        1.19733201        4.20130227
 C            1.36475981        1.88514496        3.07523183
 C           -0.51513652       -0.74791055        4.36618270
 C           -0.56200942        0.67121404        4.04555594
 C           -1.31894592       -1.62043053        3.65130218
 C            0.67047179       -2.91885931        2.92570742
 C           -0.72287351       -2.78408969        3.00247418
 C            1.23659168       -3.51964599        1.80566585
 C            2.67484273       -1.55934013        1.58200876
 C            2.29499508       -2.80693302        1.10597571
 C            2.52048147        0.84973577        1.19484676
 C            2.66034603       -0.45840789        0.70610995
 C            1.98488625        1.83119899        0.35420200
 C            0.52337426        2.44258543        2.13271606
 C            1.08335485        2.74527047        0.90549516
 C           -1.32187094        1.10464171        2.95851948
 C           -0.84848039        2.16678658        2.17293863
 C           -2.31835880       -1.07854025        2.74805131
 C           -2.34403650        0.28552128        2.47149782
 C           -1.56526258       -3.11655961        1.85676947
 C           -2.48641982       -2.01501162        1.64849499
 C            0.38023267       -4.13541467        0.81071851
 C           -1.01417761       -3.74976074        0.75711045
 C            2.10887141       -3.00784683       -0.31287020
 C            0.96409358       -3.88159560       -0.49217087
 C            2.57750096       -0.67118839       -0.67525005
 C            2.23259386       -1.93161362       -1.17507710
 C            2.04091318        1.65515467       -1.03180768
 C            2.49310646        0.42782917       -1.53679878
 C            1.46740438        2.62043994       -1.87871998
 C            0.35583639        3.57739547        0.08154478
 C            0.63908859        3.59602669       -1.33456566
 C           -1.65387659        2.68915246        1.15382402
 C           -1.08495839        3.59798462        0.25938516
 C           -3.07026401        0.69773191        1.36175503
 C           -2.79922201        1.99287228        0.77139949
 C           -2.70624494       -1.50971481        0.36808380
 C           -3.27713101       -0.24813917        0.27267824
 C           -1.28287925       -3.22214914       -0.57233660
 C           -0.09414620       -3.43476042       -1.37944157
 C           -1.99607049       -2.02981328       -0.72102497
 C            1.52912066       -1.99480154       -2.37113346
 C            0.22034603       -2.47961588       -2.33298137
 C            2.44572916        0.17598628       -2.90802032
 C            1.85536781       -1.07422100       -3.35125431
 C            1.37211983        2.38762258       -3.24948437
 C            2.00049908        1.21511827       -3.81143669
 C            0.08099656        2.56152677       -3.90984365
 C           -0.60301509        3.91002636       -2.01526357
 C           -1.68270684        3.78449175       -1.05067151
 C           -0.95370965        3.12585038       -3.18083312
 C           -3.16115258        1.89561302       -0.63730575
 C           -3.19613353        0.48421726       -0.97311082
 C           -2.60632259        2.78276870       -1.54401376
 C           -2.06911866        2.26918654       -2.79480946
 C           -1.78721770       -1.25331063       -1.87345680
 C           -0.80148785       -1.64990188       -2.78323306
 C           -2.38618126        0.00775561       -1.99649211
 C           -1.98069256        0.88842660       -3.00411925
 C            0.83522051       -0.74641291       -4.32584318
 C            1.06067555        0.62001103       -4.74825001
 C           -0.19639219        1.32911579       -4.61433744
 C           -0.54965340       -0.88014303       -3.91157586
 C           -1.17475916        0.42213164       -4.03696468
