   70
C70 / DATE: 7/ 1/2024 / Origin: Program Fullerene / C70 from database
 C            1.49086109       -0.10061182        5.16252980
 C            0.63185616       -1.25722950        5.24917644
 C            1.13007928       -2.23652587        4.29812843
 C            2.49531570       -0.38083445        4.14889572
 C            2.13256994       -1.60352471        3.47170055
 C            2.60059813        0.80111478        3.34588917
 C            0.68370393        1.00109000        4.66568438
 C            1.47912131        1.66899963        3.67782481
 C           -0.68779275       -0.85423361        4.78983680
 C           -0.59113310        0.47623880        4.23406349
 C           -0.02059444       -2.76964654        3.63028121
 C           -1.14948507       -1.89657050        3.91861906
 C            0.10698388       -3.16502846        2.31107136
 C            1.94341107       -1.57984522        2.08190847
 C            1.03822567       -2.48187043        1.49790958
 C            2.88109366        0.66492742        1.99570207
 C            2.42741518       -0.49105759        1.32999963
 C            2.82354202        1.85873665        1.30853292
 C            0.83933725        2.26163257        2.60252111
 C            1.71377781        2.73543862        1.64767573
 C           -0.99124016        0.68688333        2.90712948
 C           -0.37054181        1.69888543        2.15067088
 C           -1.94523552       -1.55640225        2.83491360
 C           -1.79001134       -0.27573122        2.26383977
 C           -1.09653596       -3.52669172        1.73877523
 C           -2.20501887       -2.61857057        1.98502760
 C           -1.11176282       -3.88001087        0.34857880
 C            0.85620592       -2.46295007        0.10402596
 C           -0.05869491       -3.34158815       -0.47618510
 C            2.17432809       -0.43645847       -0.05783864
 C            1.32907379       -1.38122141       -0.64871712
 C            2.91677886        1.84717841       -0.12273402
 C            2.58784444        0.68003530       -0.80257185
 C            1.18994206        3.23562173        0.41069245
 C            2.27857448        3.07946874       -0.52818353
 C           -0.77326202        1.91223474        0.81801867
 C           -0.08120823        2.83544806        0.01663990
 C           -2.19073255       -0.06021539        0.93420816
 C           -1.70856454        1.05685922        0.22776630
 C           -2.84104579       -2.36524637        0.72346582
 C           -2.36710059       -3.39249773       -0.18384988
 C           -2.91129330       -1.05889964        0.26055463
 C           -0.67662191       -2.99708105       -1.74020588
 C           -2.12288453       -3.00691016       -1.55046886
 C            0.93717006       -1.23104839       -1.98969786
 C           -0.13151783       -1.97699695       -2.50269069
 C            2.23572766        0.80622195       -2.15270401
 C            1.45205029       -0.18424713       -2.75978693
 C            1.97308671        3.21122749       -1.85540049
 C            2.29391122        2.09214264       -2.70969051
 C           -0.39681324        2.97359436       -1.33969139
 C            0.59614911        3.50080367       -2.17785332
 C           -2.12185641        1.29242418       -1.09079332
 C           -1.44627891        2.22533231       -1.88515292
 C           -3.23192858       -0.88593614       -1.07919378
 C           -2.83383046       -1.92136111       -2.03173773
 C           -2.98758825        0.39414082       -1.70630548
 C           -0.94546206       -1.40367600       -3.47707342
 C           -2.29632108       -1.23303457       -3.18068717
 C           -2.82724095        0.11472850       -3.12095689
 C            0.94469705        0.00455424       -4.05265027
 C           -0.36993131       -0.52027166       -4.37184894
 C            1.61120122        2.38992637       -3.95075860
 C            0.52635304        3.30966981       -3.60987866
 C            1.04199994        1.30097994       -4.69648806
 C           -1.69067931        2.25147621       -3.26642990
 C           -2.22252283        1.06723648       -3.91504800
 C           -1.18262460        0.59995268       -4.81332456
 C           -0.68870878        2.78430229       -4.17134113
 C           -0.29892121        1.71451836       -5.07431907
