   70
C70 / DATE: 7/ 1/2024 / Origin: Program Fullerene / C70 from database
 C            1.10500956       -0.07116309        4.72038057
 C            2.33128528       -0.42885034        4.04211655
 C            2.22043529       -1.82202809        3.64338121
 C            0.25823484       -1.25440139        4.74698714
 C            0.83350126       -2.21061643        3.82467674
 C           -1.10167252       -0.82156735        4.53419508
 C            0.30646621        1.01258653        4.18397689
 C           -1.08101864        0.62132571        4.33595891
 C            0.68749659        1.63851046        2.99958989
 C            2.71925778        0.32298845        2.86637531
 C            1.94819246        1.39778056        2.43048376
 C            2.80657035       -1.95286502        2.32134973
 C            3.18665767       -0.62263690        1.87322318
 C            2.19544313       -2.80406167        1.41731027
 C            0.11044736       -2.64527809        2.71088676
 C            0.82373809       -3.22652222        1.66756825
 C           -1.84370901       -1.38414962        3.42556711
 C           -1.20055494       -2.19426599        2.48390210
 C           -2.00889545        0.91917643        3.25591797
 C           -2.70520503       -0.31830662        2.95480790
 C           -0.29703321        2.26529318        2.23486450
 C           -1.58500819        1.72338121        2.19895274
 C            0.10278093        3.11826644        1.21811225
 C            2.21177197        1.90333834        1.15613464
 C            1.45553894        2.98510114        0.71652498
 C            3.03691460       -0.27410395        0.53414565
 C            2.84429899        1.07151911        0.22313346
 C            2.30379303       -2.51132293        0.00131434
 C            2.69798592       -1.24669474       -0.41534882
 C            0.18829151       -3.42612422        0.38266014
 C            1.17125988       -3.12982363       -0.65052910
 C           -1.79596199       -2.34910172        1.22213346
 C           -1.12672613       -3.02351082        0.19320742
 C           -3.28378290       -0.45730085        1.70855698
 C           -2.96730658       -1.64314661        0.93788721
 C           -2.27440979        1.66138976        0.98195454
 C           -3.21836364        0.65908126        0.78109014
 C           -0.76490470        3.28545762        0.07094249
 C           -1.80390378        2.37967150       -0.11760182
 C            1.44738580        3.35084989       -0.68969138
 C            0.07322211        3.66681870       -1.05212544
 C            2.93585606        1.45344005       -1.11013686
 C            2.24984310        2.64637831       -1.57468499
 C            2.39197087       -0.84814002       -1.71816517
 C            2.77972569        0.42706055       -2.12229448
 C            0.72776524       -2.61070985       -1.85962369
 C            1.43180455       -1.55808070       -2.45601769
 C           -1.58569740       -2.92726528       -1.12103922
 C           -0.60815403       -2.80966760       -2.19283001
 C           -3.30909145       -1.33682756       -0.43697132
 C           -3.38838559        0.11190443       -0.55219597
 C           -2.70072356       -2.05435190       -1.44839500
 C           -2.14192399        1.97737741       -1.41514729
 C           -2.76910225        0.74428444       -1.62522464
 C           -0.37733690        3.40785962       -2.33791542
 C           -1.62145159        2.67792367       -2.50034830
 C            1.78353323        2.39643804       -2.92968166
 C            2.17899367        1.03954079       -3.29207199
 C            0.55156307        2.90185820       -3.33498756
 C            0.99536030       -1.06854577       -3.68931943
 C            1.37180337        0.26955648       -4.11661900
 C           -1.20847428       -2.02844268       -3.25762600
 C           -2.38196059       -1.38018056       -2.69491223
 C           -2.49842907        0.00601441       -2.78303173
 C           -0.38394279       -1.29384010       -4.09606426
 C           -1.57991619        2.03744821       -3.79965963
 C           -0.22941357        2.18260013       -4.32527929
 C            0.22106025        0.87508002       -4.76370801
 C           -1.94769471        0.63942560       -3.89334169
 C           -0.89510449       -0.04283227       -4.62768115
