   70
C70 / DATE: 7/ 1/2024 / Origin: Program Fullerene / C70 from database
 C            1.66310608       -0.24914971        5.01337589
 C            0.83262308       -1.42873862        5.16209296
 C            1.31313522       -2.42411597        4.22358997
 C            2.61277645       -0.50270712        3.94159084
 C            2.36156584       -1.82237216        3.41225014
 C            2.54114415        0.60971808        3.02848047
 C            0.80844491        0.84292504        4.58153759
 C            1.45143176        1.47282840        3.45084528
 C           -0.51759658       -1.07768007        4.75677268
 C           -0.52893700        0.32770375        4.38602204
 C            0.15532000       -2.97038882        3.54149133
 C           -0.95156704       -2.05111476        3.76653484
 C            0.34644458       -3.45483243        2.26057951
 C            2.30768764       -2.00232780        2.02926594
 C            1.56728525       -3.08022420        1.56254752
 C            2.66838999        0.37648825        1.66608711
 C            2.56830629       -0.92600126        1.15888075
 C            2.30813242        1.41751253        0.83178892
 C            0.65649716        2.01527095        2.44811485
 C            1.27107668        2.26306966        1.23189222
 C           -1.20650636        0.69024128        3.22703530
 C           -0.71190020        1.73361019        2.43157653
 C           -1.68828883       -1.59311803        2.67370335
 C           -2.05344757       -0.24720776        2.64362287
 C           -0.72927003       -3.31746707        1.29805071
 C           -1.67937286       -2.32217973        1.47756442
 C            1.29561322       -3.18900205        0.15164014
 C           -0.12441987       -3.46769287       -0.00509593
 C            2.40896670       -1.09441590       -0.23489590
 C            1.88698535       -2.29895038       -0.73133186
 C            2.58537375        1.30186847       -0.51599857
 C            2.51503367        0.02603311       -1.08775481
 C            2.35013053        2.42812102       -1.28958090
 C            0.55413731        2.94542574        0.25934408
 C            1.22735844        3.26591464       -0.91692923
 C           -1.46174281        2.13074830        1.31538349
 C           -0.83872805        2.82602629        0.26726208
 C           -2.90917822        0.18510596        1.64727015
 C           -2.68731201        1.50339530        1.08681984
 C           -2.33488052       -1.80520247        0.35668062
 C           -3.17132465       -0.70636358        0.53638082
 C           -0.76569799       -2.94173808       -1.11730399
 C           -1.91189298       -2.15742336       -0.93614897
 C            1.41649056       -2.35067344       -2.03489571
 C            0.02818040       -2.73173809       -2.24090802
 C            2.29636986       -0.11425190       -2.47021380
 C            1.71969543       -1.28061986       -2.95250510
 C            2.38028444        2.32152212       -2.72590967
 C            2.30608179        1.00243888       -3.30727557
 C            0.48901049        3.57877383       -2.12489405
 C            1.27760524        3.11166185       -3.25296730
 C           -1.57231878        3.13775190       -0.87995325
 C           -0.88884456        3.42180625       -2.13069886
 C           -3.27022441        1.50310711       -0.24375247
 C           -3.55133762        0.11803093       -0.59643629
 C           -2.76231686        2.36958172       -1.19830742
 C           -2.50199236       -1.54856551       -2.04665123
 C           -3.28589638       -0.33708203       -1.87788715
 C           -0.48366434       -1.97728147       -3.36824420
 C            0.62088686       -1.19900145       -3.90538092
 C           -1.74951571       -1.41728708       -3.28498108
 C            1.35007756        1.07144902       -4.40228417
 C            0.63442174        2.33249847       -4.29231934
 C            0.36939958        0.01001550       -4.53831083
 C           -1.53869242        2.64730449       -3.18309555
 C           -2.65655535        1.93726356       -2.58322168
 C           -2.88864663        0.60544359       -2.91233608
 C           -1.98863245       -0.08601657       -3.82231557
 C           -0.78096675        2.03118404       -4.17554803
 C           -0.95380218        0.61109140       -4.43974178
