   70
C70 / DATE: 7/ 1/2024 / Origin: Program Fullerene / C70 from database
 C            1.32793058       -0.23344898        4.08984882
 C            2.41140169       -0.47379717        3.15454092
 C            2.39334354       -1.89011392        2.83017278
 C            0.45976338       -1.39585477        4.06731069
 C            1.13264288       -2.43780137        3.31146007
 C           -0.85756321       -0.95646645        3.63775459
 C            0.50167431        0.94122038        3.89946403
 C           -0.84381694        0.49165427        3.56984357
 C            1.03332664        2.00188314        3.18543374
 C            2.66210240        0.46695468        2.15349783
 C            2.18263447        1.76481253        2.31806135
 C            3.08194290        0.03959233        0.88869977
 C            2.90450051       -2.30121515        1.60860688
 C            3.43291238       -1.29679343        0.70439650
 C            2.17161163       -3.26723321        0.80133244
 C            0.37134401       -3.24667445        2.47842791
 C            0.91470486       -3.69345612        1.20390019
 C           -1.51619256       -1.66702371        2.64467731
 C           -1.02988508       -2.91997976        2.26423708
 C           -2.43172682       -1.00862872        1.82364612
 C           -1.54355460        1.13444675        2.54979891
 C           -2.38515723        0.39268420        1.70693583
 C            0.12699225        2.86756682        2.46019539
 C           -1.17030283        2.43236249        2.19470703
 C            2.03716761        2.62135290        1.15464703
 C            0.89854572        3.48760263        1.39755219
 C            2.92362637        0.87278158       -0.22698395
 C            2.22801190        2.07554577       -0.10832771
 C            3.24791010        0.40464705       -1.49752043
 C            3.39245608       -1.87022191       -0.62585625
 C            2.38818035       -2.92265586       -0.59476934
 C            3.43026903       -1.02189154       -1.71816607
 C            1.30818001       -2.86528035       -1.47889107
 C           -0.17032227       -3.69363505        0.23732311
 C           -1.40304150       -3.47338269        0.97413850
 C            0.01244443       -3.07949736       -1.00229784
 C           -3.13395257       -1.76925054        0.89224032
 C           -2.48522955       -2.92801027        0.30887274
 C           -3.84971020       -1.11229588       -0.17607781
 C           -3.14135637        1.05409855        0.72463114
 C           -3.76416652        0.32443524       -0.28057575
 C           -1.91334302        3.11767440        1.24478785
 C           -2.88780649        2.39371033        0.45408775
 C            0.22129882        4.02592402        0.31657612
 C           -1.22982074        4.05058059        0.36324253
 C            1.53708709        2.59821909       -1.20867618
 C            0.60789147        3.62395806       -1.02603542
 C            2.54034413        0.94668483       -2.64328818
 C            1.58665638        1.93870681       -2.43916192
 C            2.65307469       -1.38570792       -2.88721730
 C            1.48886594       -2.23624226       -2.70664319
 C            2.21710744       -0.16070361       -3.52737745
 C            0.35945651       -1.58085242       -3.34279325
 C            0.83721276       -0.34034630       -3.93563454
 C           -1.08371839       -2.50408922       -1.65598209
 C           -2.35560381       -2.65193059       -1.10892300
 C           -3.37586939       -1.67833492       -1.43169495
 C           -0.88101719       -1.60910655       -2.71270549
 C           -3.46302349        0.65048701       -1.66454897
 C           -3.02959291       -0.57978730       -2.30762127
 C           -1.81081179       -0.59220263       -2.97261061
 C           -2.74038081        2.80848505       -0.93501518
 C           -1.72553381        3.84395289       -0.98559613
 C           -0.58427868        3.65879865       -1.85767011
 C           -2.78791082        1.83919174       -1.93647438
 C            0.47997736        1.98863596       -3.28815067
 C            0.00700651        0.76778635       -3.92141371
 C           -1.38328058        0.60206581       -3.54102874
 C           -0.69132539        2.75553936       -2.90198302
 C           -1.84230357        1.85987012       -2.96733708
