   70
C70 / DATE: 7/ 1/2024 / Origin: Program Fullerene / C70 from database
 C            1.44316117       -0.13721952        5.09508618
 C            0.59286722       -1.31293124        5.09415747
 C            1.20855013       -2.30454783        4.23026436
 C            2.56697690       -0.39646116        4.21019573
 C            2.45579679       -1.75905887        3.72611392
 C            2.62792393        0.68461224        3.24026353
 C            0.68249886        0.95650555        4.51904914
 C            1.50065541        1.56636366        3.49116547
 C           -0.67824356       -0.94285499        4.49373254
 C           -0.62092377        0.45609147        4.12773773
 C            0.20548279       -2.73845879        3.27390863
 C           -0.96816831       -1.89930891        3.44750148
 C            0.59698086       -3.04356289        1.97386125
 C            2.79862836       -2.01878219        2.40720232
 C            1.92962217       -2.86312096        1.60228988
 C            2.95567348        0.39787508        1.91425410
 C            3.22726937       -0.92207938        1.54922394
 C            2.56581480        1.30078619        0.92154152
 C            0.86486915        2.11024964        2.38671771
 C            1.61872176        2.28019400        1.23726576
 C           -1.10736431        0.83073052        2.87920739
 C           -0.50448093        1.90646650        2.22715158
 C           -1.61489705       -1.45749974        2.30009443
 C           -1.83110340       -0.09096651        2.11372123
 C           -0.36988469       -3.01314673        0.97306104
 C           -1.52797603       -2.25648491        1.17248205
 C            0.02489766       -3.27952880       -0.33247898
 C            2.23990137       -2.57996192        0.20809576
 C            3.00018579       -1.34194623        0.17269801
 C            1.25826725       -2.77998063       -0.75251004
 C            2.76023042        0.95915898       -0.41808754
 C            2.67969608       -0.38298574       -0.78190308
 C            2.52413471        1.92860637       -1.38342360
 C            1.05993949        3.02803467        0.20818263
 C            1.77047371        3.09735846       -0.98443511
 C           -1.09264030        2.37414638        1.05778495
 C           -0.33161911        3.16994429        0.19853628
 C           -2.35811288        0.34307945        0.89319968
 C           -2.18853239        1.68066240        0.54738233
 C           -2.30875357       -1.93167609        0.07037431
 C           -2.68388483       -0.59036464       -0.10552926
 C           -0.97725592       -3.45672295       -1.27521015
 C           -2.24163706       -2.78993140       -1.02188580
 C           -0.64772567       -3.24204819       -2.66849730
 C            1.31848489       -2.02369408       -1.92478761
 C            1.89738273       -0.75112855       -1.88331533
 C            0.45224524       -2.34643413       -2.96501370
 C            1.99782756        1.51343928       -2.67005415
 C            1.48890729        0.22714717       -2.79431456
 C            1.14445034        3.64180118       -2.17190391
 C            1.23773660        2.62737171       -3.21150116
 C           -0.96939274        3.80377990       -0.86485563
 C           -0.23520375        4.06804442       -2.08886982
 C           -2.83382771        2.16888462       -0.57706090
 C           -2.28982974        3.34036918       -1.24709915
 C           -3.18359723       -0.14156035       -1.34383840
 C           -3.25126196        1.22817463       -1.59730462
 C           -2.78757952       -2.37009029       -2.28985936
 C           -1.83765834       -2.73874709       -3.32684015
 C           -3.11082351       -0.97379728       -2.46126682
 C           -0.05931399       -1.28368100       -3.81487767
 C            0.34217669        0.01958935       -3.56175239
 C           -1.46876237       -1.52727129       -4.03334640
 C           -2.39544236       -0.49140014       -3.63524376
 C           -0.10325203        2.37926728       -3.70856645
 C           -0.95589736        3.42890070       -3.17636822
 C           -2.26521952        3.06748202       -2.67541280
 C           -2.71620819        1.70531205       -2.86109871
 C           -0.57274949        1.06666922       -3.74365181
 C           -1.94920740        0.82233683       -3.61134001
