   70
C70 / DATE: 7/ 1/2024 / Origin: Program Fullerene / C70 from database
 C            1.54056339        0.00194966        4.55059797
 C            0.77808620       -1.18885507        4.23261654
 C            1.58596053       -2.01610364        3.36727237
 C            2.71614470        0.00951032        3.69569770
 C            2.70867645       -1.20592917        2.91684173
 C            2.73089852        1.26419873        2.98679252
 C            0.72995833        1.15288801        4.19067163
 C            1.54933808        2.01455410        3.38326122
 C           -0.50954445       -0.77144925        3.73734445
 C           -0.50340423        0.67815237        3.61182050
 C           -1.07742471       -1.49442552        2.70679352
 C            0.95279175       -2.80605074        2.41623024
 C           -0.41882543       -2.61111172        2.16841249
 C            1.75958356       -3.24750060        1.37810776
 C            2.96998953       -1.14547293        1.54751000
 C            2.72252164       -2.30897081        0.82511077
 C            3.07332963        1.28083639        1.63629935
 C            2.92027749        0.09874994        0.88967321
 C            2.89702944        2.50357228        0.99852799
 C            0.94981658        2.77638501        2.39577366
 C            1.85045733        3.36412810        1.52643241
 C           -0.95686445        1.25109011        2.41792519
 C           -0.29814609        2.36695908        1.87687170
 C           -2.01894517       -0.84554284        1.93108000
 C           -1.81329965        0.49822343        1.61066716
 C           -2.83722497       -1.62719756        1.14602570
 C           -1.04737019       -3.30246854        1.11808153
 C           -2.35252188       -2.94443308        0.77078025
 C            1.16430800       -3.97123492        0.28243963
 C           -0.27853492       -4.00360892        0.18435163
 C            2.44879943       -2.22032660       -0.59241720
 C            1.67366502       -3.38933925       -0.95057189
 C            2.46333075        0.16610268       -0.44256707
 C            2.09215765       -0.99071921       -1.11791829
 C            2.76054740        2.54267707       -0.43914084
 C            2.33060632        1.39242390       -1.09176648
 C            1.33986785        4.15611609        0.44359025
 C            2.12555202        3.81220875       -0.72870608
 C           -0.74202821        2.89562052        0.65126616
 C           -0.04639499        3.97139323        0.08901474
 C           -2.22258953        0.98964423        0.36669770
 C           -1.67013758        2.18089312       -0.13009090
 C           -3.48994110       -1.03433779        0.00153034
 C           -3.12977324        0.24850738       -0.40386858
 C           -2.83147257       -3.21598805       -0.57331285
 C           -3.62236068       -2.07404026       -1.00232209
 C           -0.58668086       -3.89017850       -1.23285008
 C            0.54867247       -3.22573990       -1.84662488
 C           -1.86246176       -3.50482874       -1.61334763
 C            1.17483951       -0.91095943       -2.16835376
 C            0.34307250       -2.00079824       -2.47098615
 C            1.54505962        1.48055063       -2.25340510
 C            0.94607983        0.32594575       -2.77530956
 C            1.23561074        3.89029202       -1.85759360
 C           -0.09519312        4.18342440       -1.33764858
 C            1.09061233        2.72415419       -2.70115846
 C           -1.93727841        2.58472594       -1.45226621
 C           -1.02101157        3.39717496       -2.11069802
 C           -0.25915453        2.81924039       -3.20567980
 C           -3.35633632        0.59991398       -1.72949940
 C           -2.72355605        1.78221348       -2.26979354
 C           -3.24402865       -1.75762372       -2.36283820
 C           -2.01081451       -2.48341368       -2.63983209
 C           -0.88750995       -1.77990312       -3.08687920
 C           -3.32319106       -0.43363468       -2.76151074
 C           -0.08812524        0.44798990       -3.70739852
 C           -0.79563611        1.71442365       -3.83574426
 C           -2.19362225        1.43272519       -3.57828767
 C           -1.07809964       -0.61045643       -3.81022451
 C           -2.38870053        0.01308391       -3.77149779
