   70
C70 / DATE: 7/ 1/2024 / Origin: Program Fullerene / C70 from database
 C            1.16382041        0.02512698        4.58618552
 C            2.38682014       -0.39829059        3.94091320
 C            2.24400084       -1.80724463        3.60660884
 C            0.31336332       -1.14821431        4.70722718
 C            0.84993037       -2.15386675        3.81372057
 C           -1.04667177       -0.71119133        4.51463997
 C            0.36851496        1.05987492        3.95200759
 C           -1.01227574        0.71265850        4.20317245
 C            0.72415113        1.51999365        2.68464811
 C            2.79962990        0.28270219        2.73307380
 C            2.02371077        1.31466360        2.20613530
 C            2.82292113       -2.01090530        2.28904954
 C            3.29770834       -0.72221195        1.81657853
 C            2.16283278       -2.84000262        1.39927281
 C            0.10096418       -2.60177391        2.72223960
 C            0.78089556       -3.21128216        1.67261234
 C           -1.83530834       -1.34035802        3.47688930
 C           -1.22178152       -2.16985886        2.53228962
 C           -1.98433658        0.93632156        3.15185943
 C           -2.72746436       -0.30251457        3.00903465
 C           -0.26796770        1.99193065        1.81291997
 C           -1.60505425        1.61634839        1.99601198
 C            0.11328238        2.59907825        0.61392358
 C            2.33064444        1.74243487        0.91795012
 C            1.47237521        2.64166984        0.29301650
 C            3.24899196       -0.41392479        0.46261532
 C            3.15426212        0.93054309        0.13117479
 C            2.26989149       -2.56857959       -0.02278318
 C            2.77619401       -1.35180099       -0.46338550
 C            0.12009463       -3.39949554        0.39939524
 C            1.07929797       -3.09487567       -0.65399760
 C           -1.85982863       -2.35674513        1.29498015
 C           -1.20005479       -3.00134053        0.24041722
 C           -3.39915479       -0.51672026        1.82312960
 C           -3.07498340       -1.70752689        1.05899767
 C           -2.44867527        1.54233806        0.88835575
 C           -3.44758176        0.56705396        0.86270971
 C           -0.84929681        2.82084104       -0.37821090
 C           -2.08251485        2.17510651       -0.29714222
 C           -0.48776625        3.43614679       -1.57486564
 C            1.89418264        3.24104528       -0.88886290
 C            0.90676739        3.73053210       -1.82683578
 C            3.37054507        1.27261025       -1.19310916
 C            2.92773341        2.57286606       -1.65323405
 C            2.45742893       -0.91935519       -1.75543637
 C            3.00209604        0.29035121       -2.19433313
 C            0.61838099       -2.51007564       -1.82720840
 C            1.34715320       -1.46891775       -2.41586941
 C           -1.68078093       -2.88568033       -1.06372414
 C           -0.72884833       -2.67303929       -2.14276130
 C           -3.51185535       -1.45315963       -0.30409953
 C           -3.82396387       -0.03314733       -0.40258854
 C           -2.86097655       -2.08940563       -1.34787814
 C           -2.79490606        1.89996085       -1.46574807
 C           -3.53820701        0.65876241       -1.56853505
 C           -1.05776797        2.95000076       -2.81919594
 C           -2.17895512        2.13705424       -2.75815956
 C            1.24139722        3.20821729       -3.14531858
 C            2.45322808        2.42292130       -3.01683831
 C            2.41271136        1.00122137       -3.31670815
 C            0.04937510        2.58010227       -3.68468504
 C            0.85027514       -0.86249375       -3.57023183
 C            1.30277224        0.46308961       -3.94944491
 C            0.12148775        1.28517378       -4.19167826
 C           -1.35678135       -1.82017454       -3.13693656
 C           -2.63789265       -1.38475751       -2.60212297
 C           -3.02630974       -0.05520747       -2.72748216
 C           -2.19844724        0.87371971       -3.48343989
 C           -0.57043867       -0.93609086       -3.86101529
 C           -1.04298494        0.41776795       -4.10988949
