   70
C70 / DATE: 7/ 1/2024 / Origin: Program Fullerene / C70 from database
 C            1.57381968       -0.01049954        4.75253475
 C            0.73958060       -1.17405835        4.54846308
 C            1.27194408       -1.92998237        3.42403232
 C            2.63040843       -0.05267524        3.75968959
 C            2.37472863       -1.16728261        2.87194494
 C            2.70702447        1.26421699        3.16875859
 C            0.75382402        1.15471186        4.46369333
 C            1.49649251        1.97873165        3.54907163
 C           -0.62927820       -0.70370806        4.45134419
 C           -0.54685562        0.68697140        4.03945349
 C           -1.51133843       -1.51462316        3.77229960
 C            0.35185994       -2.52296057        2.56578525
 C           -0.94901038       -2.63836219        3.04856277
 C            0.55923625       -2.46218892        1.17646189
 C            2.41213809       -0.92567316        1.50736151
 C            1.57311918       -1.64901853        0.65391369
 C            3.10263989        1.37510529        1.83953470
 C            3.05616504        0.22464906        1.03806909
 C            2.85284791        2.60826327        1.24254668
 C            0.81599386        2.63466050        2.53575861
 C            1.63815841        3.29891396        1.64160153
 C           -1.02639453        1.05840689        2.77558497
 C           -0.38416300        2.07161800        2.05284188
 C           -2.40889077       -0.89289357        2.82282558
 C           -1.96922298        0.24056187        2.14029009
 C           -1.98878585       -3.08249391        2.16026787
 C           -2.96320613       -1.99679364        2.07989804
 C           -0.38250569       -3.03349757        0.30692716
 C           -1.63461432       -3.40968418        0.80158732
 C           -0.25952856       -2.85579117       -1.07774962
 C            1.69643280       -1.48704476       -0.72710187
 C            0.69253096       -1.95424014       -1.57659471
 C            3.29596864        0.33312587       -0.32624904
 C            2.66031328       -0.61585126       -1.22406557
 C            3.00115053        2.76268616       -0.19082993
 C            3.26340994        1.64165126       -0.96344435
 C            1.05243115        3.89270627        0.47021065
 C            1.98408488        3.69832742       -0.62856438
 C           -0.80703240        2.34116009        0.74321789
 C           -0.23853733        3.40018773        0.04774184
 C           -2.17954722        0.35356927        0.75254252
 C           -1.57571295        1.39965685        0.04819820
 C           -3.25320083       -1.81416188        0.68013913
 C           -2.80413444       -3.03513039        0.04353033
 C           -2.94266131       -0.60323258        0.06094915
 C           -1.35357122       -3.21669623       -1.86682607
 C           -2.68017250       -3.01000045       -1.32173171
 C           -1.43528904       -2.76265997       -3.23839668
 C            0.61410771       -1.46797451       -2.89699819
 C           -0.38048563       -1.92835421       -3.75854107
 C            2.42056347        0.06220982       -2.48122687
 C            2.62084790        1.48973374       -2.26222747
 C            1.36393728       -0.34746668       -3.27768158
 C            1.19670191        3.37519479       -1.79715262
 C           -0.20277258        3.35207061       -1.39315304
 C            1.64065550        2.39646835       -2.68304554
 C           -1.73759576        1.49984736       -1.34649140
 C           -1.04506724        2.48770622       -2.06942376
 C           -2.96614921       -0.59228544       -1.33717285
 C           -3.14212188       -1.81984052       -1.99089368
 C           -2.67213265       -1.99330857       -3.34488546
 C           -2.44065094        0.49926928       -2.03791055
 C           -1.03918377       -0.98013926       -4.63573813
 C           -2.38542530       -0.81552924       -4.11750153
 C           -2.40809770        0.46318341       -3.43868685
 C            0.79615326        0.60859766       -4.11545375
 C            0.72909583        1.97571203       -3.64429180
 C           -0.67771737        2.22348205       -3.37995957
 C           -0.48069011        0.34667305       -4.74645899
 C           -1.43662218        1.26607279       -4.14118521
