   70
C70 / DATE: 7/ 1/2024 / Origin: Program Fullerene / C70 from database
 C            1.18258406        0.01995480        4.32924566
 C            2.48153708       -0.32246011        3.79697859
 C            2.46488624       -1.74159605        3.49159555
 C            0.35627378       -1.17659819        4.27136920
 C            1.07916457       -2.17037246        3.51225110
 C           -0.94626905       -0.77779361        3.80137643
 C            0.43152883        1.08901296        3.69957496
 C           -0.95160789        0.67014670        3.66896399
 C            0.93892335        1.73664851        2.58381295
 C            2.94607508        0.36543610        2.61133185
 C            2.18850535        1.38408247        2.05190672
 C            3.21869696       -1.93971137        2.27145240
 C            3.52487790       -0.62166898        1.72049801
 C            2.78725802       -2.93044544        1.40645957
 C            0.51964077       -2.68671591        2.34123024
 C            1.37560692       -3.30667221        1.43069620
 C           -1.56139184       -1.51598999        2.80010452
 C           -0.75755267       -2.26529240        1.92460370
 C           -2.76002101       -0.99379316        2.33712080
 C           -1.81407232        1.21654060        2.72150713
 C           -2.93312292        0.44751211        2.42449675
 C            0.05189049        2.46602447        1.79410262
 C           -1.29665971        2.07906234        1.73520636
 C            0.58705102        3.27386244        0.79772112
 C            2.48738357        1.76753652        0.75277509
 C            1.90424556        2.93669640        0.29097632
 C            3.44716833       -0.41505128        0.33816621
 C            2.93220493        0.79344903       -0.15436312
 C            3.18925597       -2.83207403        0.02132370
 C            3.51633010       -1.51937213       -0.50679241
 C            0.94576693       -3.49510542        0.06040397
 C            2.11346611       -3.37503565       -0.78540996
 C           -1.14301729       -2.42059142        0.57922612
 C           -0.23146516       -2.90097251       -0.36365287
 C           -3.27324759       -1.40634883        1.05186531
 C           -2.41744583       -2.03049215        0.15554624
 C           -3.81164626        0.85442154        1.35755961
 C           -4.13452744       -0.33314452        0.58231983
 C           -2.06787155        2.40352249        0.60169520
 C           -3.34284146        1.86244199        0.43772822
 C           -0.23430086        3.65268144       -0.33149924
 C           -1.48384196        3.06791698       -0.47968701
 C            1.93844896        3.23447382       -1.12106038
 C            0.63803009        3.76770081       -1.48959403
 C            2.66769312        0.93102933       -1.52828752
 C            2.26160308        2.16389723       -2.03797038
 C            2.93339260       -1.43959027       -1.83011311
 C            2.00730274       -2.55513735       -1.97284506
 C            2.55358636       -0.20317934       -2.33740242
 C           -0.38038864       -2.56374637       -1.71158136
 C            0.74759815       -2.29026247       -2.49585006
 C           -2.69407291       -1.94477368       -1.20933924
 C           -1.63974507       -2.20347921       -2.17299802
 C           -4.09379870        0.03492343       -0.82014975
 C           -3.77226489        1.45378040       -0.88710275
 C           -3.50174484       -0.84307326       -1.71780519
 C           -2.00168496        2.89139982       -1.76443388
 C           -3.08762011        1.95199565       -1.98535702
 C            0.23639056        3.14077858       -2.73494928
 C            1.28538180        2.20487232       -3.11462068
 C           -1.09701949        2.78688601       -2.89891241
 C            1.63506085       -0.20251394       -3.38590128
 C            0.67545888       -1.29044800       -3.45990688
 C            0.95564079        1.02402301       -3.76410820
 C           -1.76134097       -1.22745066       -3.24390873
 C           -2.84646753       -0.32132283       -2.90525462
 C           -2.67641386        1.05175157       -3.05307220
 C           -1.44269039        1.57390047       -3.62330033
 C           -0.61007269       -0.73505013       -3.84128116
 C           -0.43968205        0.69896297       -4.02468171
