   70
C70 / DATE: 7/ 1/2024 / Origin: Program Fullerene / C70 from database
 C            1.29910863       -0.05280660        4.35313618
 C            2.52191805       -0.32724990        3.63738092
 C            2.49471116       -1.72268069        3.22990216
 C            0.45655746       -1.23598947        4.28258092
 C            1.21612866       -2.28665189        3.63053880
 C           -0.82442283       -0.83942433        3.71361871
 C            0.49994388        1.07047877        3.92195185
 C           -0.85980877        0.60357004        3.70830363
 C            1.01863964        1.99068985        3.01470813
 C            2.83194402        0.47418548        2.46654464
 C            2.05856412        1.59831965        2.15549192
 C            2.88338601       -1.78696233        1.82919527
 C            3.19231021       -0.43932307        1.39673063
 C            2.18245206       -2.62204687        0.96739363
 C            0.55629507       -3.11642611        2.73768690
 C            1.22277533       -3.48023363        1.50176974
 C           -1.31941636       -1.53437422        2.61929910
 C           -0.81979597       -2.80949505        2.37579170
 C           -1.96616151       -0.83969810        1.59016747
 C           -1.62042249        1.27263531        2.76059062
 C           -2.18840074        0.54900049        1.69757326
 C            0.12588866        2.96086391        2.58164407
 C           -1.28464593        2.60711558        2.56341014
 C            0.39909599        3.69803448        1.36748058
 C            2.09212367        2.07805006        0.83710961
 C            1.36821325        3.22760038        0.49288094
 C            2.89666189       -0.06370695        0.09789302
 C            2.68016789        1.28152222       -0.15655385
 C            2.13410510       -2.31060298       -0.39455427
 C            2.43688258       -1.01136646       -0.82213287
 C            1.47640908       -3.18356815       -1.25890394
 C            0.19154259       -4.01086597        0.63476733
 C           -1.07010287       -3.44253585        1.09658879
 C            0.43638126       -4.05229151       -0.72701782
 C           -2.40310204       -1.54154632        0.45755582
 C           -1.90644235       -2.81931832        0.17821280
 C           -3.17965426       -0.89537089       -0.49447154
 C           -2.84810397        1.23941420        0.66404357
 C           -3.31208066        0.54273633       -0.44256457
 C           -1.91544853        3.34678870        1.49973408
 C           -0.88349653        4.11858750        0.82844267
 C           -2.63868895        2.60621662        0.49575438
 C           -1.10488528        4.00994517       -0.60204827
 C           -2.21460610        3.09253658       -0.80861552
 C            1.30104446        3.64004814       -0.83677014
 C           -0.00040231        3.91909194       -1.42997645
 C            2.69984074        1.69469698       -1.47778505
 C            2.09505288        2.95658396       -1.83325470
 C            2.10762635       -0.59825912       -2.12204320
 C            2.36090896        0.72262977       -2.50194604
 C            1.03882918       -2.70930145       -2.55920533
 C            1.26887819       -1.38623181       -2.91440472
 C           -0.70341623       -3.96263851       -1.61748388
 C           -1.89221469       -3.28345344       -1.13736137
 C           -0.26936039       -3.28606976       -2.82330560
 C           -3.05981518       -1.27388821       -1.89260276
 C           -2.37129951       -2.43415516       -2.21374429
 C           -1.34464653       -2.40677820       -3.24818828
 C           -3.01189692        1.06642592       -1.76768100
 C           -2.20040341        2.19548140       -1.87634660
 C           -2.83398432       -0.06051937       -2.66318691
 C           -0.09896541        3.13065964       -2.64145170
 C            1.25224104        2.73304444       -2.99544912
 C            1.47757110        1.37662592       -3.45608308
 C           -1.13568060        2.20897804       -2.78989774
 C            0.38674771       -0.77424093       -3.80540069
 C           -1.00292293       -1.19970352       -3.84175071
 C           -1.82269846       -0.02065532       -3.60983898
 C            0.39795225        0.66678751       -3.95313754
 C           -0.95150609        1.14108549       -3.67071548
