   70
C70 / DATE: 7/ 1/2024 / Origin: Program Fullerene / C70 from database
 C            1.24375636        0.08251312        4.33763938
 C            2.50439695       -0.23264819        3.71349223
 C            2.39574116       -1.57910931        3.16629005
 C            0.40004801       -1.09443137        4.21596718
 C            1.00136249       -1.95423271        3.22364565
 C           -0.94306925       -0.63304829        3.97134204
 C            0.48065968        1.20637347        3.83300466
 C           -0.91848230        0.81927207        3.88944903
 C            0.93422697        1.93008465        2.73234152
 C            2.97455182        0.61385935        2.63740796
 C            2.12095927        1.56779980        2.07531951
 C            3.05006029       -1.56211774        1.87856484
 C            3.70262284       -0.27251513        1.75460273
 C            2.38730939       -2.06701551        0.76658571
 C            0.30810237       -2.18543467        2.03592725
 C            1.01358841       -2.35678142        0.83776779
 C           -1.72122729       -1.30407458        3.04636048
 C           -1.08131492       -1.99841491        2.00152638
 C           -2.94998496       -0.72018707        2.80011477
 C           -1.84159122        1.44654635        3.04795350
 C           -2.98477364        0.72955435        2.68356115
 C            0.02220791        2.75780548        2.09383609
 C           -1.40430593        2.48459349        2.22143231
 C            0.27447990        3.19431945        0.73699361
 C            2.36398995        1.99404134        0.76049784
 C            1.44353508        2.81077511        0.09367949
 C            3.99885585        0.17737073        0.48219541
 C            3.44254966        1.44989767        0.05776020
 C            2.96931806       -1.83809117       -0.47695322
 C            3.81729238       -0.73844384       -0.63095520
 C            2.39640160       -2.41814255       -1.59834801
 C            0.30966515       -2.65357068       -0.33318679
 C            1.01168252       -2.84492618       -1.52184994
 C           -1.77964276       -2.27607920        0.81751213
 C           -1.07238744       -2.44741514       -0.37960805
 C           -3.79066320       -1.27639516        1.77027555
 C           -3.16679324       -2.13521377        0.79110935
 C           -3.64602631        1.02718861        1.42468024
 C           -4.38583478       -0.16192847        1.05223181
 C           -2.00972027        2.66955261        0.90799643
 C           -0.98182330        3.13973584        0.00381155
 C           -2.95802334        1.76106348        0.46082754
 C           -0.97026334        2.70589188       -1.31499509
 C            1.47321950        2.90559872       -1.29692418
 C            0.21808391        2.85107791       -2.02941150
 C            3.43010097        1.43941830       -1.39577126
 C            3.72694961        0.08049529       -1.82855252
 C            2.47277713        2.18413314       -2.06464300
 C            2.61015286       -1.80515524       -2.89841585
 C            3.10808649       -0.44288420       -2.95586349
 C            0.37236482       -2.50603524       -2.77957142
 C            1.35834322       -1.85950380       -3.62895991
 C           -1.70207783       -2.24464034       -1.61997645
 C           -0.92075409       -2.00702136       -2.74718927
 C           -3.82415266       -1.84919379       -0.46362362
 C           -4.44024232       -0.53419943       -0.33937567
 C           -3.02614505       -1.82598573       -1.66749255
 C           -2.94463532        1.34786233       -0.88094411
 C           -1.94806988        1.80681293       -1.75600788
 C           -3.78969890        0.32014135       -1.31018653
 C           -3.32139561       -0.57752678       -2.34459021
 C           -1.27331503       -0.95949416       -3.60180932
 C           -1.83013980        1.22094388       -3.01936131
 C           -2.38930181       -0.10003055       -3.24590419
 C            0.44265720        2.09597715       -3.24941024
 C            1.82467828        1.64108542       -3.24869918
 C            2.13520170        0.35684395       -3.68523819
 C            1.07628482       -0.53111039       -4.14161238
 C           -0.55959739        1.26616734       -3.72413646
 C           -0.24081141       -0.09179845       -4.14413635
