   70
C70 / DATE: 7/ 1/2024 / Origin: Program Fullerene / C70 from database
 C            1.33671578        0.07080326        4.97961327
 C            0.57753157       -1.13029221        4.68621065
 C            1.46286689       -2.06526911        4.03197717
 C            2.62366121       -0.05091966        4.31567895
 C            2.71260478       -1.37597485        3.74785479
 C            2.76090784        1.07730841        3.42359448
 C            0.63380037        1.19670125        4.38306197
 C            1.55810894        1.88881421        3.52044848
 C           -0.62622217       -0.73080511        3.98670919
 C           -0.59033571        0.70712993        3.79687614
 C           -1.09716054       -1.49569559        2.92768783
 C            1.01362614       -2.67594236        2.79754829
 C           -0.30474134       -2.51916094        2.37890996
 C            2.97193083       -1.50267183        2.32284638
 C            2.05283822       -2.49644198        1.80527535
 C            3.30478886        0.89739616        2.15674728
 C            3.22772753       -0.37175073        1.55084513
 C            3.25648522        2.01869323        1.34088140
 C            1.08614215        2.46947085        2.34663384
 C            2.05978083        2.84257904        1.42614868
 C           -0.99669012        1.20614511        2.56077187
 C           -0.19442918        2.13078862        1.87284357
 C           -2.05333860       -0.90421151        2.11002929
 C           -1.93577313        0.46424162        1.83974619
 C           -2.69328514       -1.72500823        1.20015498
 C           -0.61116570       -2.95904279        1.08899161
 C           -1.93220567       -2.83546011        0.66998240
 C            1.65392248       -2.42275729        0.47683831
 C            0.41672427       -2.96592243        0.13696029
 C            3.05926457       -0.47337085        0.16353276
 C            2.22487721       -1.46463092       -0.36869075
 C            3.60146153        1.88277185       -0.05448749
 C            3.47958917        0.57124741       -0.64695976
 C            1.67375312        3.19950438        0.07922641
 C            2.74312823        2.78409745       -0.80101511
 C           -0.57801956        2.50721628        0.58049838
 C            0.37206250        2.97306819       -0.33528815
 C           -2.44359806        0.98901544        0.64827812
 C           -1.83288013        2.12556446        0.10639086
 C           -3.43851630       -1.13519400        0.11230505
 C           -3.34906707        0.23323984       -0.11004158
 C           -2.27389450       -2.98011834       -0.73388891
 C           -3.35336941       -2.04729770       -1.01658060
 C            0.12364502       -3.11849596       -1.21191375
 C           -1.25823364       -3.15939102       -1.65962573
 C            1.80271062       -1.39660495       -1.70637257
 C            0.88651216       -2.34207955       -2.17254435
 C            2.87342717        0.74649053       -1.95099309
 C            2.37637986        2.11427901       -2.02942036
 C            2.08736640       -0.26793378       -2.48573910
 C            0.11714454        2.85852862       -1.70444336
 C            1.09888478        2.30965003       -2.54296078
 C           -2.23387554        2.60847822       -1.13479955
 C           -1.20900340        2.89013002       -2.12181074
 C           -3.85349067        0.73318815       -1.30679902
 C           -3.34955450        1.98845289       -1.81613635
 C           -3.50695791       -1.53546935       -2.29792672
 C           -3.99365205       -0.17295796       -2.43618676
 C           -1.33146854       -2.49600975       -2.95175952
 C            0.00299572       -2.01733494       -3.28054636
 C           -2.44764228       -1.72961429       -3.27841295
 C            1.22715700        0.08587127       -3.52558519
 C            0.71168186        1.44390138       -3.55867714
 C            0.16168651       -0.80813377       -3.93829887
 C           -1.59329175        2.22259097       -3.35344508
 C           -2.97014977        1.78800798       -3.20705329
 C           -3.32478109        0.43005755       -3.57554668
 C           -2.28113505       -0.48279158       -4.00959346
 C           -0.67349850        1.39621279       -3.98370700
 C           -1.00246486        0.00311902       -4.26484919
