   70
C70 / DATE: 7/ 1/2024 / Origin: Program Fullerene / C70 from database
 C            1.60058664       -0.21119056        5.40414287
 C            0.77418948       -1.40750439        5.40654308
 C            1.30725265       -2.31151854        4.40625328
 C            2.61870963       -0.37415893        4.38080732
 C            2.53584645       -1.73448706        3.88554203
 C            2.49145470        0.71983954        3.42674879
 C            0.76066548        0.90198594        5.00746673
 C            1.36633116        1.53514735        3.84390755
 C           -0.56205518       -1.02767709        4.98164889
 C           -0.60628740        0.41928615        4.89821775
 C            0.23981637       -2.62989091        3.46773345
 C           -0.90499655       -1.80120189        3.79536619
 C            0.56870297       -2.80215571        2.13123515
 C            2.82582657       -1.95022046        2.54968455
 C            1.91190391       -2.76630385        1.77542619
 C            2.66512087        0.45158834        2.06849135
 C            3.13111066       -0.80537468        1.70275934
 C            1.97260084        1.21522627        1.12134962
 C            0.52924814        2.05384719        2.86699050
 C            0.97351675        2.09622327        1.54486311
 C           -1.40502411        0.98180434        3.91805747
 C           -0.84108839        2.03644861        3.09927803
 C           -1.60392990       -1.17497220        2.76273400
 C           -2.10069854        0.10303943        2.98804139
 C           -0.38065407       -2.50025957        1.15411573
 C           -1.40937407       -1.59913927        1.44287846
 C           -0.06246796       -2.74363981       -0.17815666
 C            2.24549022       -2.51945530        0.39447819
 C            2.94795052       -1.25278468        0.33604046
 C            1.27964105       -2.72340762       -0.56696918
 C            2.09161622        0.91511545       -0.24712399
 C            2.54192513       -0.34940356       -0.64199335
 C            1.45048717        1.73180007       -1.18893675
 C            0.15228484        2.68252347        0.58711370
 C            0.60545210        2.75245392       -0.72983405
 C           -1.72642923        2.16568148        1.96847549
 C           -2.46736813        0.92523474        1.85173038
 C           -1.22963060        2.68936414        0.79467100
 C           -2.06077806       -0.93617367        0.38784440
 C           -2.55480503        0.35816888        0.58353437
 C           -1.01948426       -2.47021970       -1.15484056
 C           -1.91409340       -1.41586921       -0.92114063
 C           -0.67375188       -2.79104350       -2.46589523
 C            1.55305950       -2.19442111       -1.81215076
 C            2.06105180       -0.88731222       -1.83959416
 C            0.71937314       -2.61568449       -2.82905002
 C            1.38667229        1.31391608       -2.53071598
 C            1.66546973       -0.01558948       -2.85410834
 C            0.81544230        2.14563429       -3.49416242
 C           -0.22735291        3.40528286       -1.63622961
 C            0.02584495        3.27303091       -3.05255970
 C           -2.02181126        2.51394925       -0.32191455
 C           -2.57556650        1.23802985       -0.50286086
 C           -1.65468388        3.25322550       -1.42885112
 C           -2.38097191       -0.63631165       -1.99511347
 C           -2.68557031        0.71085618       -1.78958670
 C           -1.47714472       -2.28380794       -3.55437798
 C           -2.30754393       -1.12862943       -3.29840434
 C            0.77080824       -1.92020332       -4.08923455
 C            1.22235480       -0.54527045       -4.06876655
 C           -0.56998979       -1.95164105       -4.64204304
 C            0.12294071        1.55898400       -4.63291922
 C           -2.10868306       -0.20551488       -4.40692739
 C            0.30416752        0.21300634       -4.90011142
 C           -0.88522999       -0.60815565       -5.07891924
 C           -1.26624431        3.20323789       -3.71732595
 C           -2.26126670        2.93611683       -2.69610429
 C           -2.74820640        1.58530045       -2.87759456
 C           -1.24122329        2.05754694       -4.60161257
 C           -2.30050978        1.14769788       -4.18804162
