   70
C70 / DATE: 7/ 1/2024 / Origin: Program Fullerene / C70 from database
 C            1.12446104       -0.06681177        4.59575180
 C            2.34790519       -0.43276482        3.92075506
 C            2.20772316       -1.81451510        3.48661939
 C            0.27194388       -1.24492292        4.61505269
 C            0.81896551       -2.17956557        3.64880741
 C           -1.09158745       -0.79271681        4.44187700
 C            0.33499649        1.01986948        4.05472658
 C           -1.05679157        0.64168228        4.20060355
 C            0.72143095        1.64174318        2.87053972
 C            2.76294159        0.33599474        2.76256691
 C            1.94787078        1.33864588        2.25897493
 C            2.78590291       -1.90748060        2.16848709
 C            3.33391605       -0.60356417        1.82679734
 C            2.10663082       -2.60015803        1.17516668
 C            0.06765998       -2.51596539        2.51984238
 C            0.71542775       -2.76636706        1.29369126
 C           -1.88031969       -1.37999815        3.38062817
 C           -1.32602499       -2.36056989        2.56042610
 C           -1.96879924        0.92819756        3.10262193
 C           -2.63699672       -0.30915280        2.75434623
 C           -0.25669932        2.29442546        2.12527398
 C           -1.54237336        1.75347156        2.07354173
 C            0.15747032        3.12711244        1.09897144
 C            2.17901925        1.77807275        0.95542037
 C            1.46083697        2.87929847        0.51017736
 C            3.39290628       -0.27401996        0.47570967
 C            2.78917299        0.91732997        0.02768714
 C            2.67403813       -2.52846632       -0.09291510
 C            3.47449467       -1.35352776       -0.39449680
 C            1.86099771       -2.79585380       -1.26038941
 C           -0.04885235       -3.03783541        0.15264733
 C            0.48455398       -2.80873241       -1.11615307
 C           -2.08263326       -2.74281802        1.46213726
 C           -1.41173505       -3.25289426        0.28595792
 C           -3.06889151       -0.50543826        1.44572009
 C           -3.10856591       -1.82340367        0.99743314
 C           -2.19979181        1.68430071        0.84731591
 C           -2.93084730        0.53273277        0.50874806
 C           -0.76316317        3.41996474        0.01797846
 C           -1.91572254        2.64938314       -0.11749638
 C            1.36618881        3.15488387       -0.90789717
 C            0.04589105        3.72115738       -1.15002022
 C            2.66221848        1.16710966       -1.35447098
 C            1.91004985        2.25442392       -1.81499273
 C            3.41021129       -1.12503815       -1.81474541
 C            2.44853007       -2.06795327       -2.36869377
 C            3.03698054        0.19041292       -2.27881668
 C            1.57611652       -1.31757690       -3.25057814
 C            2.20409752       -0.02457314       -3.44530716
 C           -0.32250288       -2.29320458       -2.13810827
 C            0.19960898       -1.37193187       -3.04684860
 C           -2.27792847       -2.99347706       -0.84939608
 C           -3.33028574       -2.09362935       -0.40359376
 C           -1.69804430       -2.42870328       -2.05359473
 C           -3.32698567        0.32127501       -0.82155115
 C           -3.37053147       -0.97774027       -1.31940929
 C           -2.52803589       -1.31050924       -2.45654471
 C           -2.54944924        2.58624200       -1.34947993
 C           -3.15679647        1.33628494       -1.75582230
 C           -0.52307897        3.61641318       -2.41035455
 C           -1.89721500        3.15764648       -2.51973695
 C            1.45768194        2.26565552       -3.13635475
 C            1.41639114        1.02129055       -3.88163637
 C            0.23987950        2.98698830       -3.47210474
 C           -0.60321696       -0.32803708       -3.52603843
 C           -1.96045417       -0.26038962       -3.17126677
 C           -2.57956900        0.98268877       -3.04211219
 C           -1.95712486        2.17099827       -3.58653704
 C            0.01455673        0.75976197       -4.15067321
 C           -0.63865447        2.05484890       -4.16486525
