   70
C70 / DATE: 7/ 1/2024 / Origin: Program Fullerene / C70 from database
 C            1.44149005       -0.06479431        4.86961272
 C            0.66381086       -1.22551462        4.49477633
 C            1.31121077       -1.87127318        3.36320782
 C            2.63363058       -0.06067507        4.04813116
 C            2.51512290       -1.12167022        3.06124136
 C            2.79688431        1.28937877        3.56080222
 C            0.66188849        1.10965430        4.50628993
 C            1.47957090        1.91438295        3.63335452
 C           -0.69692411       -0.77262355        4.31341999
 C           -0.61617508        0.64932497        4.01350184
 C           -1.50210529       -1.54032208        3.50008262
 C            0.50150002       -2.31901207        2.32354328
 C           -0.85433084       -2.48053676        2.59530876
 C            0.90287321       -2.11987111        0.99819031
 C            2.82107679       -0.82244456        1.73770784
 C            2.05063067       -1.37284030        0.70783570
 C            3.51260022        1.45280390        2.38904433
 C            3.59288924        0.31244558        1.48025195
 C            3.18341013        2.60351218        1.57685888
 C            0.92507141        2.44469266        2.46872763
 C            1.80762438        3.06607515        1.59559879
 C           -1.09109528        1.10574042        2.77876912
 C           -0.29347157        1.93751870        1.97530808
 C           -2.47267704       -0.85290669        2.68470313
 C           -2.16057805        0.41979110        2.20388758
 C           -1.77928303       -2.69964442        1.49952360
 C           -2.93340575       -1.85257921        1.75002279
 C            0.05753157       -2.50668504       -0.04766559
 C           -1.29440216       -2.78295769        0.20088871
 C            0.51065695       -2.42617495       -1.36583141
 C            2.31609803       -1.01338218       -0.61557178
 C            1.64483237       -1.65536809       -1.65763770
 C            3.66330646        0.83506856        0.12857482
 C            3.51529041        2.27174049        0.20768715
 C            2.98261265        0.18421421       -0.88766011
 C            1.41441656        3.29919846        0.22727949
 C            2.51266046        2.88338220       -0.63738218
 C           -0.69289225        2.21441210        0.65249764
 C            0.11890902        3.00729201       -0.17401761
 C           -2.64045907        0.79279719        0.94899064
 C           -1.85446388        1.61543832        0.12818656
 C           -3.66000862       -1.41541631        0.66344887
 C           -3.65381508        0.01012655        0.38982948
 C           -2.21707799       -2.70079322       -0.84367642
 C           -3.43957826       -2.06765038       -0.61193678
 C           -0.33625110       -2.86477313       -2.38481945
 C           -1.76664178       -2.85147544       -2.15044682
 C           -0.12793246       -2.43134132       -3.75139921
 C            1.86587395       -1.18197006       -2.95327273
 C            0.97745463       -1.54868723       -4.03536603
 C            2.60477333        0.92575084       -2.00680886
 C            2.18206648        2.24921944       -1.82893124
 C            2.18743034        0.22081324       -3.12744795
 C           -0.10754521        3.01792016       -1.54352997
 C            0.99085821        2.64877149       -2.42063622
 C           -2.20748563        1.81715537       -1.21983372
 C           -1.31247651        2.43480068       -2.07487055
 C           -3.99690044        0.16337003       -1.00549955
 C           -3.96433245       -1.16026525       -1.61171298
 C           -3.18653756        1.03330310       -1.81635113
 C           -2.37815393       -2.06513497       -3.21699852
 C           -1.34404774       -1.76184711       -4.18337439
 C           -3.27169989       -1.06065057       -2.87940635
 C           -2.86643901        0.32841708       -3.04987904
 C            0.43152668       -0.31413957       -4.58129955
 C            1.16002464        0.78822352       -3.98508608
 C            0.45255127        1.88905721       -3.53234496
 C           -0.98758585        1.79000234       -3.34081400
 C           -1.01120600       -0.36997767       -4.42778063
 C           -1.67218002        0.62960305       -3.70779613
