   70
C70 / DATE: 7/ 1/2024 / Origin: Program Fullerene / C70 from database
 C            1.52059458        0.07951790        4.39611717
 C            0.71641467       -1.09616981        4.11497528
 C            1.45539602       -1.92789877        3.19612509
 C            2.64330146        0.07623026        3.47411185
 C            2.66150535       -1.20659762        2.81149902
 C            2.55597724        1.26170360        2.64991751
 C            0.71142767        1.24490193        4.09725727
 C            1.42100582        2.03923589        3.11627850
 C           -0.59810051       -0.65486929        3.71487359
 C           -0.62608763        0.79608669        3.76058471
 C           -1.21876761       -1.27704212        2.64387808
 C            0.76842009       -2.62244521        2.20390356
 C           -0.57140668       -2.30034674        1.93105736
 C            1.54571996       -3.16257815        1.18904007
 C            3.05475710       -1.27147209        1.48045695
 C            2.75864037       -2.45578956        0.81304835
 C            2.75880385        1.14069393        1.27588595
 C            3.18229159       -0.08431801        0.74151601
 C            2.22412392        2.12290594        0.43062601
 C            0.67274201        2.71366845        2.16702885
 C            1.28065702        3.01865819        0.95518349
 C           -1.30857573        1.47562859        2.75327981
 C           -0.72088157        2.61914207        2.21168336
 C           -2.28308921       -0.61564773        2.05060671
 C           -2.27007226        0.78757631        2.00220659
 C           -3.10668153       -1.34848240        1.21348994
 C           -1.20538599       -2.84129299        0.79909862
 C           -2.54035419       -2.50818322        0.54800972
 C            0.91711908       -3.64314318       -0.02135467
 C           -0.44848808       -3.46143498       -0.20356188
 C            2.90301615       -2.54072232       -0.62727961
 C            1.83344695       -3.39049043       -1.12564181
 C            3.46747774       -0.15616398       -0.61784600
 C            3.27327841       -1.40761837       -1.33511067
 C            2.46495948        2.06519551       -0.95029318
 C            3.04310169        0.92257643       -1.49004789
 C            1.70376177        2.84479456       -1.81642812
 C            0.65807884        3.95352750        0.13810949
 C            0.88691764        3.91137581       -1.28724308
 C           -1.46222089        3.37956614        1.31892875
 C           -0.75659697        4.19900990        0.34452023
 C           -2.99141240        1.47640696        1.01267267
 C           -2.58342242        2.75559043        0.64101573
 C           -3.94968708       -0.65272823        0.27159884
 C           -3.72435105        0.75960430        0.07090978
 C           -3.05179466       -2.52800999       -0.81527164
 C           -3.81550119       -1.31024076       -1.01506071
 C           -0.97117832       -3.60068406       -1.48840128
 C           -2.20920325       -2.93540733       -1.83426111
 C            1.31932602       -3.17688328       -2.39773261
 C           -0.08677997       -3.45014854       -2.63178617
 C            2.63323022       -1.10671516       -2.60753058
 C            2.41866720        0.32854032       -2.66129081
 C            1.65180638       -1.95198720       -3.10976276
 C            0.93605572        2.17528099       -2.85494687
 C            1.19311985        0.83374656       -3.09142079
 C           -0.40905083        3.83919119       -1.94528979
 C           -1.42358319        4.04682098       -0.93852434
 C           -2.44628059        3.03774536       -0.77821194
 C           -0.43791893        2.61077708       -2.71910449
 C           -3.42674022        0.96958107       -1.33889699
 C           -3.31531085       -0.32999292       -1.96441538
 C           -2.52713817        1.97174253       -1.67077201
 C           -1.42353130        1.65413286       -2.47789884
 C           -1.89342426       -1.98851677       -2.89442112
 C           -0.61955928       -2.37473002       -3.45481051
 C            0.40850528       -1.36878657       -3.58423124
 C            0.12163594       -0.04374544       -3.26739050
 C           -2.17934898       -0.63983406       -2.70078478
 C           -1.16335734        0.31996103       -2.82247073
