   70
C70 / DATE: 7/ 1/2024 / Origin: Program Fullerene / C70 from database
 C            1.52652462        0.06764843        4.72582393
 C            0.73375662       -1.14532568        4.67251729
 C            1.36542378       -2.06069397        3.73571397
 C            2.66779947       -0.11497964        3.84900460
 C            2.63097321       -1.47094715        3.33187354
 C            2.68099252        0.98356351        2.89966999
 C            0.71564774        1.13940813        4.17483784
 C            1.44265632        1.72237984        3.06419764
 C           -0.64105598       -0.75762657        4.41969533
 C           -0.61050539        0.61049938        3.92225132
 C           -1.44797231       -1.67027913        3.76175860
 C            0.55448207       -2.70070477        2.79690750
 C           -0.80494251       -2.78980034        3.09052588
 C            0.98741167       -2.81962824        1.46566430
 C            3.09054499       -1.68548974        2.04433857
 C            2.30286416       -2.50486953        1.13949732
 C            3.12260666        0.73879115        1.60450999
 C            3.55961825       -0.54671188        1.27328820
 C            2.67874364        1.57727642        0.58136090
 C            0.74366153        2.07883366        1.91800181
 C            1.45859971        2.24708848        0.73358149
 C           -1.22204069        0.90473738        2.70447708
 C           -0.63000314        1.83419836        1.84326248
 C           -2.43678340       -1.16882138        2.82912226
 C           -2.21964977        0.06009054        2.21347027
 C           -1.72493427       -3.25870766        2.07760501
 C           -2.81757671       -2.29736306        2.01035611
 C            0.06723798       -3.03555722        0.43084922
 C           -1.23336225       -3.43310876        0.73012912
 C            0.37690408       -2.64879911       -0.87984850
 C            2.61269335       -2.07363418       -0.21490387
 C            3.54714482       -0.96359391       -0.11722386
 C            1.59274147       -2.02692676       -1.16243966
 C            3.18713593        1.36971040       -0.69333876
 C            3.51264321        0.01264063       -1.09538144
 C            2.55617750        2.01425843       -1.82652869
 C            0.78566429        2.75141613       -0.38260072
 C            1.43717507        2.81162557       -1.62148056
 C           -1.30382516        2.19977078        0.68141674
 C           -0.60342887        2.89305401       -0.30646974
 C           -2.74239497        0.30167625        0.94178592
 C           -2.48578904        1.53364796        0.34867099
 C           -3.09823265       -2.06558374        0.60983136
 C           -2.31297828       -3.02187316       -0.14601071
 C           -3.17545152       -0.76161793        0.13369199
 C           -0.61250698       -2.67718935       -1.85691575
 C           -2.00964370       -2.71270109       -1.46027850
 C           -0.50799565       -1.78255681       -2.99399739
 C            1.70510052       -1.16281023       -2.26232541
 C            2.75423818       -0.24653450       -2.30201316
 C            2.53609966        1.04653213       -2.91321626
 C            0.64692353       -1.03013150       -3.17133514
 C            1.54925831        1.16369806       -3.87565816
 C            0.57539702        0.08912999       -4.00445550
 C            0.74140633        3.23519571       -2.75127105
 C            0.82522094        2.42062727       -3.95169342
 C           -1.30947886        3.45414391       -1.36261779
 C           -0.63190668        3.67569416       -2.62136406
 C           -3.10704964        1.81415711       -0.86172603
 C           -2.61911976        2.91816787       -1.66704554
 C           -3.22233633       -0.58343990       -1.24987506
 C           -2.64704704       -1.55443128       -2.06736293
 C           -1.80332591       -1.14090609       -3.17495005
 C           -3.37797651        0.70236499       -1.75173160
 C           -0.72488941        0.69399390       -4.25924320
 C           -0.52937271        2.12907799       -4.38162046
 C           -1.41154356        3.02633884       -3.66736669
 C           -2.59988344        2.47644535       -3.05158903
 C           -1.84843847        0.17958271       -3.60977305
 C           -2.79802755        1.03587883       -3.04403682
