   70
C70 / DATE: 7/ 1/2024 / Origin: Program Fullerene / C70 from database
 C            1.73626736        0.08662547        4.72003432
 C            0.89306449       -1.09563265        4.67641297
 C            1.40515970       -1.96521593        3.63478716
 C            2.64245310        0.02647625        3.58595679
 C            2.51559411       -1.28034213        2.98624972
 C            2.39822970        1.17762455        2.74693991
 C            0.88124720        1.24337211        4.53733697
 C            1.34116058        1.96070880        3.36015121
 C           -0.48792438       -0.66291782        4.60276317
 C           -0.49782077        0.79397261        4.57693886
 C           -1.36310680       -1.37459094        3.79107137
 C            0.51682974       -2.68642210        2.83720889
 C           -0.85801018       -2.45541877        2.95106801
 C            1.01189836       -3.21532076        1.64889137
 C            2.63643649       -1.40258994        1.60768417
 C            2.18496661       -2.59170407        1.05871970
 C            2.36934851        1.00605419        1.36772292
 C            2.63461845       -0.25021528        0.80684587
 C            1.72055539        1.96769631        0.59436636
 C            0.39915024        2.55178243        2.52618775
 C            0.72934687        2.76002821        1.18673753
 C           -1.42115079        1.46188111        3.78370247
 C           -0.94993676        2.50641711        2.88792197
 C           -2.39217584       -0.67179300        3.04045907
 C           -2.44176723        0.71289611        3.06511289
 C           -1.70726509       -2.52336408        1.76728317
 C           -2.57907321       -1.36516490        1.77846562
 C            0.10071539       -3.51450970        0.55876595
 C           -1.16654120       -2.94026867        0.55660022
 C            2.07818977       -2.71769305       -0.37785370
 C            0.89213296       -3.50527031       -0.65903081
 C            2.58877753       -0.37392633       -0.58518916
 C            2.35393393       -1.61972575       -1.18017059
 C            1.84099335        1.90545121       -0.79734008
 C            2.45882949        0.77952804       -1.35745730
 C            1.09549879        2.78275464       -1.59976163
 C           -0.19147946        3.41544269        0.38186713
 C           -0.02308301        3.39121226       -1.05412536
 C           -1.96814118        2.66845079        1.86412866
 C           -2.73478672        1.43545845        1.83699399
 C           -1.60561329        3.24136402        0.65752127
 C           -2.74039065       -0.64610289        0.59977184
 C           -2.86398163        0.74895148        0.62935366
 C           -1.68519195       -2.43130489       -0.63902505
 C           -2.49908586       -1.29151733       -0.61092315
 C            0.24857177       -3.30443630       -1.86778546
 C           -1.13592869       -2.86693077       -1.84522706
 C            1.97274595       -1.67460674       -2.52112688
 C            0.92015073       -2.51745605       -2.88798505
 C            2.59757078        0.66989454       -2.73630911
 C            2.30665842       -0.61170163       -3.35237968
 C            1.08839750        2.61314325       -2.97860050
 C            2.03722135        1.70411961       -3.57600963
 C           -0.19802563        2.41160292       -3.63221611
 C           -1.31742643        3.10230053       -1.64952759
 C           -2.20809161        2.73514951       -0.56323267
 C           -2.79684917        1.47456824       -0.56502448
 C           -1.34481303        2.38019159       -2.83895786
 C           -2.84006394       -0.63890882       -1.78999493
 C           -2.93166613        0.80782752       -1.77715450
 C           -2.23812536        1.31042472       -2.95764997
 C           -1.37895374       -2.12587098       -3.07324917
 C           -0.11392662       -2.02960766       -3.78698395
 C           -2.24230424       -1.04210896       -3.05031949
 C           -1.91532743        0.16217867       -3.79805157
 C            1.49511423       -0.36458028       -4.53228040
 C            1.39245970        1.07040212       -4.71338156
 C           -0.01723367        1.41951150       -4.67455910
 C            0.15563358       -0.92053279       -4.57766537
 C           -0.78466044        0.19228868       -4.60547402
