   70
C70 / DATE: 7/ 1/2024 / Origin: Program Fullerene / C70 from database
 C            1.31977180       -0.02806025        5.76110947
 C            0.37616648       -1.12468931        5.84715000
 C            0.99510665       -2.28504332        5.22828583
 C            2.45759250       -0.47936221        4.97358099
 C            2.23716480       -1.85652167        4.60472497
 C            2.64661012        0.47591852        3.90746915
 C            0.67974286        1.04938586        5.02298950
 C            1.61920644        1.50042143        4.02788484
 C           -0.78770631       -0.76535909        5.05270334
 C           -0.60550207        0.58758951        4.55188222
 C            0.11660812       -2.73346916        4.16626973
 C           -1.00917368       -1.82276437        4.08538347
 C            2.16637361       -2.18768224        3.18827868
 C            0.91947781       -2.89968958        2.96923866
 C            2.96150496        0.03411343        2.62259768
 C            2.57083128       -1.25654568        2.22249145
 C            2.99755548        1.03187037        1.66131574
 C            1.13084338        2.03067520        2.84086188
 C            2.06603076        2.13670830        1.82730309
 C           -0.94953150        0.84713137        3.22576529
 C           -0.20217208        1.76894795        2.47766146
 C           -1.43047798       -1.46369800        2.81305638
 C           -1.67988379       -0.11924981        2.53980787
 C            0.29269619       -2.71288854        1.74646528
 C           -1.02413977       -2.26023278        1.74668180
 C            2.15087270       -1.47079800        0.89648957
 C            1.08207311       -2.34327103        0.66759799
 C            2.98814625        0.67753231        0.25921385
 C            2.52983760       -0.57495247       -0.11385550
 C            1.63076445        2.53698439        0.51684301
 C            2.46551134        1.83205970       -0.43417589
 C           -0.62432805        2.04457601        1.16416441
 C            0.26960297        2.61888457        0.25167250
 C           -2.14524057        0.18307092        1.26739633
 C           -1.75632739        1.38536058        0.67207045
 C           -1.61200053       -2.00133313        0.51433512
 C           -2.44229775       -0.89172696        0.43838303
 C            0.48106255       -2.35067718       -0.58211344
 C           -0.91355468       -2.36286689       -0.63525000
 C            2.01463597       -0.73196915       -1.40919741
 C            1.18347282       -1.82076822       -1.65334203
 C            1.94073417        1.65912503       -1.69546265
 C            1.94367646        0.38551030       -2.26045273
 C           -0.09865321        2.71359068       -1.09117168
 C            0.90315985        2.50235002       -2.04435638
 C           -2.20087746        1.65522190       -0.62777007
 C           -1.42791405        2.48072811       -1.44668647
 C           -3.06310202       -0.62577536       -0.76670435
 C           -3.08614893        0.75038839       -1.21627297
 C           -1.53915245       -2.19677503       -1.87095749
 C           -2.71168193       -1.43919821       -1.91736229
 C            0.65162024       -1.99708405       -2.92111424
 C           -0.75915959       -2.32566086       -3.01713096
 C            1.38727703        0.25036589       -3.54092814
 C            0.92402081       -1.00378300       -3.93929191
 C            0.58418649        2.56377722       -3.38549514
 C            0.93487461        1.40849144       -4.19263922
 C           -1.80670547        2.68953567       -2.77608471
 C           -0.75953861        2.95379142       -3.74265463
 C           -3.25069623        0.72371210       -2.65867740
 C           -3.03657356       -0.65347817       -3.09841266
 C           -2.74991397        1.77779646       -3.40483668
 C           -1.24484888       -1.81544599       -4.28808793
 C           -0.13641850       -1.12790492       -4.93004571
 C           -2.38360033       -0.91791879       -4.29707957
 C           -0.03554501        1.33010283       -5.27368425
 C           -1.09321977        2.28786983       -4.98879919
 C           -2.31558565        1.53794992       -4.77155116
 C           -0.66483799        0.06172413       -5.56403051
 C           -2.07230288        0.17338163       -5.20344972
