   70
C70 / DATE: 7/ 1/2024 / Origin: Program Fullerene / C70 from database
 C            1.46350618        0.08490565        4.73521565
 C            0.69474329       -1.13533291        4.56378550
 C            1.38276484       -1.96404350        3.58861546
 C            2.64242860       -0.02391744        3.89984983
 C            2.69937893       -1.37911254        3.38462670
 C            2.62025282        1.06778084        2.94180434
 C            0.66109884        1.17976153        4.22063302
 C            1.34058041        1.74198198        3.07076229
 C           -0.67417767       -0.75153632        4.29193003
 C           -0.68372240        0.68274073        4.03508278
 C           -1.42435640       -1.56518500        3.45406934
 C            0.66544603       -2.46050895        2.49510024
 C           -0.72873283       -2.47182564        2.54722152
 C            1.31035155       -2.63402820        1.26541063
 C            3.32278318       -1.56960825        2.16438229
 C            2.68831014       -2.43545634        1.19250281
 C            3.11007806        0.82460508        1.66662852
 C            3.74423937       -0.39502307        1.42086115
 C            2.55544165        1.51867436        0.59321247
 C            0.59987113        2.00359603        1.92041973
 C            1.23950657        1.99149106        0.68224516
 C           -1.42045889        1.14393540        2.95195984
 C           -0.79194795        1.92193199        1.96573636
 C           -2.50766192       -0.95952106        2.70145214
 C           -2.56149037        0.42775745        2.60704548
 C           -1.48579786       -2.52442275        1.30717290
 C           -2.69117852       -1.74108084        1.48952954
 C            0.56111992       -2.71048990        0.08357984
 C           -0.80558037       -2.44526763        0.10329172
 C            1.20743399       -2.80971001       -1.14245352
 C            3.30214187       -2.12783146       -0.08794948
 C            3.94639093       -0.82673403        0.04771505
 C            2.60510867       -2.42787858       -1.24838672
 C            3.14724879        1.36806491       -0.65221660
 C            3.80623406        0.11061318       -0.96489856
 C            2.43911531        1.80319419       -1.83495272
 C            0.50145959        2.26060387       -0.47853777
 C            1.15661039        2.32821481       -1.71425923
 C           -1.53238625        2.31140094        0.84887046
 C           -0.89275921        2.42866536       -0.39774925
 C           -3.39747888        0.97175078        1.64833147
 C           -2.90868688        2.11369111        0.90598032
 C           -3.26577585       -1.10938330        0.39396682
 C           -3.95122920        0.07497438        0.65476631
 C           -1.41948796       -1.84213173       -0.99977578
 C           -2.71050733       -1.31192593       -0.87723952
 C            0.52589109       -2.34445499       -2.33775050
 C           -0.75294032       -1.80021182       -2.23238497
 C            2.73666570       -1.56320460       -2.40923056
 C            3.33396722       -0.31489444       -2.27060543
 C            2.71824546        0.84249060       -2.89328724
 C            1.51164818       -1.68921586       -3.18195774
 C            1.76463443        0.65569916       -3.88230078
 C            1.10226390       -0.64012040       -3.99248572
 C            0.42045180        2.49979763       -2.87893944
 C            0.74572612        1.67766315       -4.03257829
 C           -1.64761746        2.64978115       -1.56514303
 C           -1.02062321        2.59169904       -2.80697232
 C           -3.69801088        2.18348888       -0.30240140
 C           -4.39295967        0.90785337       -0.44151908
 C           -3.02630494        2.44715096       -1.55020385
 C           -3.30739069       -0.71190032       -1.98532744
 C           -4.17573818        0.43411468       -1.78926160
 C           -3.59444766        1.53720838       -2.52651871
 C           -1.22892742       -0.98330069       -3.26275004
 C           -0.32092471       -0.39234246       -4.14429591
 C           -0.47280789        1.01562972       -4.44909306
 C           -1.57772800        1.71781695       -3.83711911
 C           -2.50486804       -0.43287929       -3.16276493
 C           -2.69843318        0.97375094       -3.51044743
