   70
C70 / DATE: 7/ 1/2024 / Origin: Program Fullerene / C70 from database
 C            1.17787488       -0.03759087        4.47972867
 C            2.43402210       -0.37047339        3.84834622
 C            2.41315912       -1.79351733        3.55009330
 C            0.34005158       -1.22816920        4.47283867
 C            1.07004064       -2.28115382        3.79488746
 C           -0.97175802       -0.84167516        3.97928399
 C            0.39552766        1.04449811        3.92183000
 C           -0.98817260        0.60919051        3.87547514
 C            0.88812427        1.78272679        2.85097823
 C            2.80591410        0.32766848        2.62945239
 C            1.94556697        1.27361896        2.08404354
 C            2.99366713       -1.96667870        2.23312346
 C            3.40202994       -0.65367306        1.75188543
 C            2.41711553       -2.85645505        1.32835586
 C            0.43077749       -3.01773456        2.80763425
 C            1.14405037       -3.37356863        1.58718434
 C           -1.59434120       -1.59566523        2.98874863
 C           -0.94554371       -2.70635520        2.44387204
 C           -2.63337981       -1.00951329        2.27374221
 C           -1.84218170        1.21678147        2.95753078
 C           -2.80769303        0.43540391        2.32932550
 C            0.00622384        2.67788588        2.26605257
 C           -1.42032938        2.39844317        2.34989681
 C            0.28140540        3.18852109        0.94055501
 C            2.00405310        1.53256012        0.70919889
 C            1.30055618        2.62232254        0.19001357
 C            3.40052735       -0.43677522        0.38079065
 C            2.74541428        0.69084660       -0.14134773
 C            2.84249855       -2.77797393        0.00645731
 C            3.52907275       -1.56886366       -0.41302769
 C            1.90789934       -3.10205051       -1.05617085
 C            0.16519758       -3.44920601        0.50849236
 C           -1.11156913       -3.01068824        1.02869603
 C            0.54673220       -3.08645452       -0.77508277
 C           -2.87702763       -1.42751688        0.90319502
 C           -1.92513405       -2.19857323        0.25364833
 C           -3.38077757        0.85891867        1.06048447
 C           -3.48767085       -0.31587683        0.20691483
 C           -2.03498621        2.85015542        1.11059797
 C           -0.99383882        3.47042639        0.30279916
 C           -3.01155052        2.07629798        0.49025018
 C           -1.08744655        3.41514387       -1.08376985
 C            1.31554911        2.87227924       -1.17358585
 C            0.08514132        3.29010232       -1.83268644
 C            2.70169697        0.88250949       -1.53238274
 C            2.01731499        1.96842817       -2.05880873
 C            3.36921169       -1.45488058       -1.84277511
 C            2.39726171       -2.45754748       -2.25335636
 C            2.93997671       -0.18712661       -2.38745128
 C            1.44510215       -1.80598726       -3.12031245
 C            1.96455766       -0.48349520       -3.42109331
 C           -0.32584693       -2.33236014       -1.57730772
 C           -1.53534226       -1.85050933       -1.04211220
 C            0.08704810       -1.92940548       -2.85811629
 C           -3.27664414       -0.16223507       -1.15437320
 C           -2.35162756       -0.99811048       -1.79561318
 C           -3.24039656        2.25975743       -0.87176477
 C           -2.31320543        3.07043342       -1.64584871
 C           -3.54983897        1.09560517       -1.68122186
 C           -2.37971362        2.61206103       -3.02399004
 C           -3.19192335        1.40410603       -3.04906128
 C            0.06176144        2.68359560       -3.15750267
 C            1.20264211        1.78140719       -3.25412596
 C            1.05540059        0.50045452       -3.79501923
 C           -1.14931174        2.33498068       -3.73857593
 C           -0.75446218       -1.14259792       -3.63254630
 C           -2.07730998       -0.82196165       -3.14699449
 C           -2.48310102        0.40381910       -3.81347309
 C           -0.20294749        0.07327212       -4.21549975
 C           -1.28509488        1.02819823       -4.35140547
