   70
C70 / DATE: 7/ 1/2024 / Origin: Program Fullerene / C70 from database
 C            1.34459232       -0.02138387        4.99439269
 C            0.56091665       -1.20511079        4.69578137
 C            1.39113864       -2.10371927        3.92732945
 C            2.56920968       -0.09919344        4.21538705
 C            2.62525290       -1.40459566        3.60123140
 C            2.61286875        1.06056308        3.35291988
 C            0.59395615        1.13515158        4.52989511
 C            1.43815445        1.87651618        3.62463926
 C           -0.69110145       -0.76891743        4.11339856
 C           -0.68400891        0.67952218        4.03197913
 C           -1.23102711       -1.45982408        3.03889070
 C            0.85609251       -2.64054555        2.69107988
 C           -0.47150284       -2.41920784        2.34926214
 C            2.80538727       -1.48447342        2.16266662
 C            1.85092319       -2.45386546        1.65821520
 C            3.02574774        0.93415636        2.02806934
 C            3.03375269       -0.33074935        1.41154904
 C            2.84562504        2.06017099        1.23395189
 C            0.85134288        2.53832216        2.55112435
 C            1.70542948        2.91492967        1.51893618
 C           -1.20319159        1.26943865        2.87938549
 C           -0.50538411        2.31945941        2.26456031
 C           -2.25570069       -0.83084238        2.34601289
 C           -2.15677144        0.55450150        2.14249644
 C           -2.95850458       -1.61159480        1.44656601
 C           -0.85644933       -2.74289904        1.04775093
 C           -2.20463540       -2.62897977        0.74285331
 C            1.41528143       -2.32105734        0.34508713
 C            0.09193222       -2.63497298        0.02017170
 C            2.86865171       -0.41955533        0.02490316
 C            2.12817192       -1.48703898       -0.50715011
 C            2.96954888        1.95130130       -0.20202248
 C            3.14282038        0.69754089       -0.76706546
 C            1.16514204        3.38461429        0.25623553
 C            1.99784925        2.84957581       -0.80531162
 C           -1.06636781        2.92792651        1.14400073
 C           -0.20493963        3.42737922        0.08394066
 C           -2.77047473        1.16119295        1.03577408
 C           -2.22921262        2.33018958        0.51485100
 C           -3.84294551       -0.97130293        0.50549238
 C           -3.63067320        0.42910292        0.22202851
 C           -2.62957757       -2.62067292       -0.63834442
 C           -3.75086465       -1.70151470       -0.74382813
 C           -0.32097138       -2.49322259       -1.31342337
 C           -1.67977892       -2.61122367       -1.65004628
 C            1.83033625       -1.51582875       -1.86434654
 C            0.61095086       -2.07060142       -2.27660060
 C            2.98853843        0.60055525       -2.14472180
 C            2.52975592       -0.65143808       -2.70000424
 C            1.43777525        2.47300165       -2.02183001
 C            2.22094439        1.64069300       -2.81234896
 C           -0.76902625        3.01597820       -1.19039830
 C           -2.07836986        2.45550330       -0.92897215
 C            0.04022892        2.41896349       -2.15172040
 C           -3.52629352        0.57670033       -1.22384792
 C           -3.74115494       -0.73324843       -1.82408512
 C           -2.56049523        1.43994919       -1.74727446
 C           -2.11518026       -2.18643013       -2.90212045
 C           -3.03377107       -1.05955997       -2.96772982
 C            0.24967495       -2.03872783       -3.62480980
 C           -1.15314464       -2.00670316       -3.96488926
 C            2.02235058       -0.34452291       -4.02182275
 C            1.65474515        1.06424682       -4.01092354
 C            0.88057895       -1.08111636       -4.50991948
 C           -0.55048936        1.58278467       -3.10867783
 C           -1.84392553        1.07207334       -2.89375897
 C           -2.30712693       -0.01025449       -3.64582347
 C           -1.41557537       -0.70041229       -4.55512207
 C            0.22163813        1.12555055       -4.17862048
 C           -0.13866949       -0.10224760       -4.85524923
