   70
C70 / DATE: 7/ 1/2024 / Origin: Program Fullerene / C70 from database
 C            1.34676579       -0.03498859        4.14168758
 C            2.46974498       -0.23420491        3.24208036
 C            2.41716504       -1.61351413        2.78492152
 C            0.47224633       -1.19221447        4.01842900
 C            1.08708644       -2.11353920        3.09148753
 C           -0.85848120       -0.70998845        3.73034487
 C            0.52835589        1.15373562        4.00209342
 C           -0.85983223        0.72226915        3.96254569
 C            0.95583164        2.17131086        3.15956763
 C            2.82933886        0.76539687        2.34273898
 C            2.13645020        1.97789467        2.32787658
 C            3.59381434        0.41514332        1.23515128
 C            2.98613598       -1.95262054        1.56068234
 C            3.73133127       -0.98959521        0.87619197
 C            2.43453769       -3.02698612        0.86448259
 C            0.33136411       -2.66392742        2.06287980
 C            1.02919343       -3.34667690        1.06799150
 C           -1.55174368       -1.21128523        2.63232275
 C           -0.94496122       -2.14809032        1.77794204
 C           -2.69240367       -0.52733704        2.20802551
 C           -1.80082039        1.49414285        3.29665792
 C           -2.84333784        0.82077904        2.54009506
 C           -0.01765041        2.92497417        2.38432033
 C           -1.36914296        2.63913922        2.50537683
 C            1.90211914        2.65415345        1.05961148
 C            0.53913246        3.14941977        1.06228969
 C            3.45201963        1.17440802        0.00357890
 C            2.42175006        2.10587907       -0.10699087
 C            3.89405079       -1.06161105       -0.57158060
 C            3.75627359        0.28543967       -1.10511464
 C            2.73320453       -3.21331575       -0.54377234
 C            3.37746472       -2.14184224       -1.27551647
 C            0.42697229       -3.51670847       -0.24062945
 C            1.48791534       -3.53362846       -1.22372937
 C           -1.53959881       -2.44390232        0.54685420
 C           -0.74014504       -2.82827549       -0.51911339
 C           -3.44678072       -1.05089756        1.16621028
 C           -2.82896908       -2.01545207        0.27863279
 C           -4.24774562       -0.15054689        0.35462231
 C           -3.29928321        1.76042703        1.52921074
 C           -2.21159515        2.69648347        1.32142741
 C           -3.98001732        1.27448389        0.42461795
 C           -0.24696281        2.95031430       -0.06631659
 C           -1.63281603        2.79027806        0.05702678
 C            1.69480694        2.20145369       -1.29832775
 C            0.37998838        2.68373447       -1.28142524
 C            3.12529342        0.48818655       -2.32355544
 C            2.19054377        1.59245842       -2.44954349
 C            2.60834414       -1.91357114       -2.48896595
 C            1.37085598       -2.66681625       -2.37719449
 C            2.56515705       -0.64424258       -3.04907707
 C           -0.92929693       -2.23070442       -1.77077369
 C            0.16295936       -2.01922538       -2.62404474
 C           -3.16704871       -1.65622628       -1.08858567
 C           -4.12099475       -0.56419250       -1.03192109
 C           -2.15892123       -1.62675552       -2.05303010
 C           -3.56876561        1.70585723       -0.90263199
 C           -2.39731034        2.45362823       -1.06377185
 C           -3.86223951        0.61791584       -1.82750492
 C           -0.38349860        2.67278330       -2.44435754
 C           -1.82535393        2.54138874       -2.33008212
 C            1.28268506        1.25416013       -3.52789222
 C            1.32950104       -0.19242547       -3.66821541
 C            0.15794719       -0.93066715       -3.49508201
 C            0.05066964        1.88303754       -3.58656897
 C           -2.25221672       -0.71413959       -3.10526004
 C           -3.07593945        0.48261169       -2.96011649
 C           -2.26500951        1.61493418       -3.35804424
 C           -1.05257664       -0.33873280       -3.83263543
 C           -1.08755720        1.10062541       -4.02860398
