   70
C70 / DATE: 7/ 1/2024 / Origin: Program Fullerene / C70 from database
 C            1.51896276        0.10673239        4.83537373
 C            0.73729642       -1.11719808        4.78741691
 C            1.55063693       -2.12963435        4.15620213
 C            2.69085229       -0.08792441        4.00012087
 C            2.74470487       -1.48394174        3.63237901
 C            2.64462319        0.89741540        2.93929153
 C            0.72352088        1.16390077        4.23581576
 C            1.47617221        1.73156658        3.13672470
 C           -0.55005036       -0.80336018        4.19440298
 C           -0.58606151        0.62743899        3.94391801
 C           -1.10353473       -1.65238853        3.23251922
 C            0.96380081       -2.89528568        3.07747375
 C           -0.39745719       -2.79662259        2.81345834
 C            2.84470026       -1.82293817        2.22449246
 C            1.87759768       -2.86429255        1.94735907
 C            2.94621794        0.52910307        1.63523243
 C            3.01321809       -0.82660487        1.27477263
 C            2.63621023        1.44711207        0.63848239
 C            0.78361313        2.14548808        2.00061125
 C            1.48069604        2.22302532        0.79301827
 C           -1.23036889        1.06129690        2.79579251
 C           -0.60468432        1.99401418        1.95725265
 C           -2.12434891       -1.13516418        2.42404695
 C           -2.22731838        0.25090944        2.26737788
 C           -2.80277122       -1.98370597        1.55413830
 C           -0.83330984       -3.47586353        1.68304226
 C           -2.16333014       -3.22130297        1.17487317
 C            1.33785197       -2.96998693        0.66243053
 C            0.07667871       -3.55426270        0.54786882
 C            2.78743935       -1.16782526       -0.05602092
 C            1.79319415       -2.10950283       -0.35161431
 C            3.09228228        1.15986242       -0.63576021
 C            3.15124801       -0.23693782       -1.01649647
 C            2.57182606        1.90172912       -1.75996671
 C            0.81574410        2.71646631       -0.33463855
 C            1.47228257        2.72813562       -1.57363433
 C           -1.28660750        2.43302001        0.82196992
 C           -0.56402212        2.95095080       -0.25554141
 C           -3.04387691        0.78839174        1.28196330
 C           -2.59632119        1.99697648        0.61433874
 C           -3.43237006       -1.44242901        0.36188830
 C           -3.63333301       -0.07718909        0.27368731
 C           -2.09836224       -3.25767410       -0.27589334
 C           -0.70117065       -3.35495483       -0.65748591
 C           -2.87400528       -2.13874739       -0.78456453
 C            1.07979415       -2.01270851       -1.55825175
 C           -0.22920070       -2.49076337       -1.63093857
 C            2.62170920       -0.34556549       -2.35964497
 C            2.59737026        1.00510505       -2.90198626
 C            1.55544277       -1.20550590       -2.59849697
 C            1.78194842        1.28798972       -3.98720932
 C            0.83087981        3.21957697       -2.70629779
 C            1.01647666        2.52493256       -3.97222788
 C           -1.26768444        3.37472133       -1.38019383
 C           -0.56027283        3.60185791       -2.62357159
 C           -3.13862080        1.96451604       -0.73296995
 C           -3.45991127        0.57823554       -1.01147191
 C           -2.50710462        2.69965373       -1.71837079
 C           -2.35457572       -1.39686021       -1.84365393
 C           -1.15451054       -1.81333215       -2.41805404
 C           -2.78465596       -0.08006863       -2.03947660
 C            0.72921425       -0.96609209       -3.69788711
 C            0.91652842        0.23874339       -4.49313690
 C           -0.70024216       -1.17342691       -3.55628236
 C           -0.29944994        2.24609987       -4.52370388
 C           -1.27759126        2.88422913       -3.66852757
 C           -2.28379863        2.07144277       -3.00638733
 C           -2.23138397        0.67492871       -3.07904177
 C           -0.39574501        0.81776469       -4.73743014
 C           -1.36268259        0.04672792       -3.97290615
