   70
C70 / DATE: 7/ 1/2024 / Origin: Program Fullerene / C70 from database
 C            1.52753201        0.04172697        4.40204507
 C            0.74288360       -1.16790471        4.23960047
 C            1.50427400       -2.06756665        3.40601096
 C            2.61299452       -0.00321552        3.43451440
 C            2.60531407       -1.30930171        2.82620067
 C            2.48811947        1.14604799        2.57098579
 C            0.67816116        1.16327473        4.05393532
 C            1.36567152        1.93473401        3.04655026
 C           -0.58076402       -0.79579640        3.78987907
 C           -0.63431362        0.65496284        3.72359855
 C           -1.15743337       -1.53179837        2.75798931
 C            0.82278896       -2.93612800        2.56621342
 C           -0.54782100       -2.71985664        2.33427566
 C            1.59138868       -3.51849076        1.56590803
 C            2.83435804       -1.42986130        1.45674557
 C            2.58310594       -2.68461346        0.90821195
 C            2.63894457        0.99327864        1.19211289
 C            2.75808517       -0.28929733        0.63254926
 C            2.18894872        2.03801455        0.38488167
 C            0.61188350        2.58386775        2.08553018
 C            1.27198110        2.94638800        0.92745731
 C           -1.31411291        1.23361816        2.66131186
 C           -0.76679164        2.34543583        2.00321934
 C           -2.12473784       -0.92047926        1.94999488
 C           -2.27699675        0.47412885        2.01164741
 C           -2.78936653       -1.67242762        0.96825653
 C           -1.22677163       -3.51746198        1.41685491
 C           -2.30144816       -2.93207950        0.63786185
 C            0.96151352       -4.35208137        0.56739371
 C           -0.48265308       -4.39303150        0.52732542
 C            2.38517723       -2.82236486       -0.51804974
 C            1.43411603       -3.90562533       -0.73220101
 C            2.62393691       -0.43973755       -0.75676032
 C            2.26433948       -1.68011369       -1.29181625
 C            2.34361397        1.94860084       -0.99807270
 C            2.53220929        0.68935351       -1.58094648
 C            2.02829649        3.06113260       -1.78260482
 C            0.62742634        3.84832023        0.10554798
 C            1.12259371        4.05011497       -1.23860200
 C           -1.48986537        2.94404566        0.95541191
 C           -0.82135088        3.78664581        0.05885665
 C           -3.14177139        1.13173077        1.15221417
 C           -2.69669091        2.37152235        0.54224742
 C           -3.51834656       -1.01758316       -0.01940698
 C           -3.85692103        0.37467781        0.15209398
 C           -3.12384892       -1.21432670       -1.40588519
 C           -2.03182138       -3.20746108       -0.76577112
 C           -0.89422328       -4.09425915       -0.83489063
 C            0.27020560       -3.64859632       -1.56434523
 C           -2.13542065       -2.15482193       -1.67039689
 C            1.39458482       -1.71931498       -2.37596416
 C            0.21382472       -2.44110777       -2.24897621
 C           -1.00646298       -1.76742949       -2.40997589
 C            2.21695637        0.48442056       -2.92743120
 C            1.42624179       -0.67489404       -3.27592011
 C            1.65527298        2.89213707       -3.17211836
 C            1.71468579        1.57008965       -3.74345761
 C           -0.02893776        4.12418940       -2.12278626
 C           -1.19140874        3.74379202       -1.34572258
 C            0.28574928        3.36331462       -3.31111934
 C           -2.98487897        2.28555111       -0.88386483
 C           -3.67246428        1.03696603       -1.12815157
 C           -3.06404507        0.08934816       -2.03660633
 C           -2.01003330        2.70714765       -1.77725252
 C           -0.99758762       -0.53571393       -3.07866032
 C            0.15771152       -0.17859846       -3.77006176
 C            0.36525562        1.20422128       -4.15567086
 C           -0.53369729        2.20983744       -3.63217803
 C           -1.90820078        0.45890841       -2.70742687
 C           -1.53895878        1.81179423       -2.75233968
