   70
C70 / DATE: 7/ 1/2024 / Origin: Program Fullerene / C70 from database
 C            1.29182635        0.08697390        4.40523513
 C            2.49092965       -0.25934404        3.68141477
 C            2.46997827       -1.69550490        3.46077064
 C            0.49005504       -1.12158596        4.54823729
 C            1.13020784       -2.16408094        3.76719330
 C           -0.88912980       -0.76962683        4.26405859
 C            0.42688553        1.11127380        3.86075373
 C           -0.93412771        0.67354898        4.10097250
 C            0.73049684        1.72784421        2.64289147
 C            2.73432154        0.37074876        2.39985384
 C            1.83681106        1.31305431        1.88956253
 C            3.00394469       -1.94448388        2.13583845
 C            3.24436624       -0.65533616        1.50876072
 C            2.43161617       -2.94915573        1.37576653
 C            0.40765762       -2.83672412        2.78153833
 C            1.09544388       -3.42237984        1.71975506
 C           -1.63000782       -1.57677754        3.40970455
 C           -0.97147705       -2.64549762        2.67259825
 C           -2.62226930       -0.97631251        2.52994035
 C           -1.93857456        1.24371591        3.33872822
 C           -2.83919557        0.39104396        2.57130508
 C           -0.27014402        2.47599728        2.02191470
 C           -1.58715628        2.35136543        2.47296637
 C           -0.04645822        3.02796952        0.75954001
 C            1.87226604        1.58073646        0.51841324
 C            0.98247827        2.50702965       -0.03723072
 C            3.01630765       -0.50159909        0.14715236
 C            2.63325015        0.75214814       -0.31082579
 C            2.49187810       -2.84670945       -0.07019325
 C            2.78844268       -1.62020069       -0.66354513
 C            0.39523510       -3.68173784        0.47196494
 C            1.38610688       -3.62557909       -0.59009619
 C           -1.61358675       -2.74283817        1.36833915
 C           -2.53708725       -1.63340229        1.23744649
 C           -0.86173389       -3.11726247        0.26634006
 C           -2.52378204       -0.87316861        0.06851534
 C           -3.14087584        1.09273814        1.33337746
 C           -2.66598612        2.45137115        1.51417077
 C           -2.93073118        0.46450312        0.10178801
 C           -1.10597323        3.71081568        0.16529872
 C           -2.44943688        3.21163995        0.38610523
 C           -1.03663589        4.06626128       -1.23493904
 C            1.06689395        2.82163718       -1.40437390
 C            0.09932364        3.62201098       -2.00623365
 C            2.67441364        0.98551621       -1.67202518
 C            1.89634658        2.06884677       -2.23182148
 C            2.46277493       -1.43114137       -2.01247123
 C            2.58133117       -0.15442679       -2.56531660
 C            0.95764209       -3.36523262       -1.87881252
 C            1.70188313       -2.40169029       -2.66827663
 C           -1.17376560       -2.58656822       -0.98540795
 C           -1.89331434       -1.38144709       -1.06879907
 C           -0.44170243       -3.04143883       -2.07658720
 C           -1.92552939       -0.64202739       -2.25713667
 C           -2.80189951        1.26174692       -1.04112158
 C           -2.84739818        2.65166577       -0.88519537
 C           -2.22841095        3.51451998       -1.86833376
 C           -2.30938473        0.70132199       -2.22778528
 C           -0.41661904        3.23564623       -3.30808711
 C           -1.82923900        2.94382852       -3.12978280
 C           -1.98175929        1.51830406       -3.31615349
 C            1.41478820        1.64203971       -3.53896268
 C            1.76146573        0.23971996       -3.70425590
 C            0.17578279        2.09079710       -3.97787000
 C           -0.89308299        1.12270041       -4.18846824
 C            0.82004488       -2.01637944       -3.75563210
 C           -0.53704378       -2.35043435       -3.34174458
 C           -1.31807539       -1.13769181       -3.41045744
 C            0.81066373       -0.63899771       -4.20672071
 C           -0.58226602       -0.22429775       -4.26354897
