   70
C70 / DATE: 7/ 1/2024 / Origin: Program Fullerene / C70 from database
 C            1.50402698        0.08287723        4.74848611
 C            0.71907195       -1.13612527        4.65110128
 C            1.54739743       -2.12911783        4.01204651
 C            2.66250237       -0.07199024        3.88514003
 C            2.74618456       -1.46385218        3.51585035
 C            2.56167148        0.91382826        2.82817645
 C            0.70022333        1.16602001        4.21327808
 C            1.42638133        1.77059121        3.11934638
 C           -0.55457109       -0.80082665        4.03894687
 C           -0.61591520        0.64604973        3.92616320
 C           -1.05651725       -1.57159861        2.98271919
 C            0.98754012       -2.87682469        2.90775375
 C           -0.34364582       -2.69695951        2.53397981
 C            2.87770605       -1.80033101        2.11019673
 C            1.99479074       -2.91864385        1.86317051
 C            2.77747802        0.54756586        1.50042120
 C            2.94880666       -0.79815764        1.14419632
 C            2.36338321        1.44067902        0.51780402
 C            0.69939214        2.25941315        2.04039917
 C            1.34264455        2.34960969        0.81574475
 C           -1.29890582        1.16731179        2.84135804
 C           -0.69190276        2.14186640        2.03848736
 C           -2.05014794       -1.00212221        2.16944201
 C           -2.28330273        0.37737334        2.27439005
 C           -2.58396210       -1.73357572        1.09799513
 C           -0.73683585       -3.32308588        1.35834778
 C           -1.90723219       -2.85570125        0.64610394
 C            1.57369604       -3.14350472        0.56064567
 C            0.28457379       -3.63774289        0.37055240
 C            2.74550643       -1.16756293       -0.18894992
 C            2.16945654       -2.41775209       -0.47051743
 C            2.65329951        1.15453390       -0.81148250
 C            2.80819444       -0.18232034       -1.18082378
 C            2.35879303        2.12186563       -1.77044782
 C            0.69885146        3.01136863       -0.22143729
 C            1.38938144        3.14442803       -1.42373273
 C           -1.39874387        2.61528114        0.92479120
 C           -0.69795096        3.13872297       -0.17187227
 C           -3.17957229        1.00851200        1.43000582
 C           -2.73134066        2.21790514        0.76327372
 C           -3.45498858       -1.11960742        0.20226388
 C           -3.91974571        0.21850605        0.47657401
 C           -3.16527317       -1.20819633       -1.22311081
 C           -1.64805655       -2.98283062       -0.78064262
 C           -0.32820583       -3.56561296       -0.94711670
 C           -2.08052119       -1.96715671       -1.63261157
 C            1.80665507       -2.73515235       -1.77511066
 C            0.44576529       -3.17446949       -2.02704235
 C            2.71505525       -0.54595949       -2.52157041
 C            2.17868483       -1.84745216       -2.85493296
 C            2.12006939        1.73260717       -3.15222948
 C            2.14494639        0.38607516       -3.47346477
 C            0.69174762        3.52245415       -2.63288214
 C            1.00426970        2.52516935       -3.64077147
 C           -1.41731815        3.51211362       -1.30937937
 C           -0.74461824        3.65807249       -2.58585076
 C           -3.35320312        2.25026734       -0.55244162
 C           -3.95319659        0.94786568       -0.77827840
 C           -3.38679194        0.09528347       -1.81119107
 C           -2.66082169        2.83071664       -1.59947579
 C           -0.23239235        1.83746174       -3.96718242
 C           -1.31436214        2.66104530       -3.48430896
 C           -2.43686223        0.63690031       -2.67105379
 C           -2.40329509        2.02555396       -2.78230142
 C           -1.21562423       -1.46772058       -2.61182678
 C           -0.12257308       -2.24738025       -2.98763203
 C            0.99111885       -1.63361077       -3.67135451
 C            0.92044533       -0.22471926       -3.96826575
 C           -1.31066834       -0.12451059       -3.02956267
 C           -0.28064658        0.45627893       -3.79829668
