   70
C70 / DATE: 7/ 1/2024 / Origin: Program Fullerene / C70 from database
 C            1.26341112       -0.11906606        4.31818932
 C            2.58095229       -0.36471143        3.78764116
 C            2.58232924       -1.70913721        3.23191948
 C            0.44155285       -1.28617736        4.02336517
 C            1.20165503       -2.13233485        3.13293862
 C           -0.84783463       -0.79600950        3.58076550
 C            0.52961160        1.03413483        3.84339374
 C           -0.85877061        0.62880448        3.85480449
 C            0.99929189        1.76978919        2.75197563
 C            3.08843166        0.51768530        2.75746740
 C            2.25375680        1.47914048        2.18141416
 C            3.37312168       -1.66851369        2.01685617
 C            3.89855964       -0.31551070        1.89250053
 C            2.89557724       -2.30814139        0.87485647
 C            0.69244396       -2.41765599        1.87298054
 C            1.57687283       -2.78121224        0.85684761
 C           -1.38003052       -1.24338523        2.37160734
 C           -0.64005049       -2.11042430        1.56015311
 C           -2.43742614       -0.52389027        1.81418135
 C           -1.76672661        1.40693395        3.16659015
 C           -2.74288912        0.73392925        2.33546149
 C            0.09271011        2.59347192        2.07489476
 C           -1.26699237        2.52054354        2.37656289
 C            0.48446690        3.24581740        0.91616131
 C            2.60183053        2.00651700        0.93097224
 C            1.74205007        2.89222728        0.29314015
 C            4.21776635        0.15664674        0.62970866
 C            3.55409129        1.35588088        0.14317092
 C            3.54345140       -2.04567469       -0.32985379
 C            4.26303774       -0.79273134       -0.46925078
 C            2.85776348       -2.28718541       -1.58551998
 C            1.06009115       -3.33649744       -0.30610437
 C            1.70492123       -3.05386681       -1.57931812
 C           -1.16202603       -2.50717067        0.32690647
 C           -0.37669230       -3.28764908       -0.52035098
 C           -2.94038198       -0.88249826        0.56247766
 C           -2.31605525       -1.89409562       -0.17179101
 C           -3.88985694       -0.05969997       -0.05070285
 C           -3.28386296        1.74976846        1.45902591
 C           -2.25283681        2.77580343        1.33184744
 C           -3.97363139        1.34033438        0.33325763
 C           -0.48611798        3.47826776       -0.14421171
 C           -1.83233584        3.19091678        0.06607847
 C            1.50156348        2.72361917       -1.13217095
 C            0.12856574        3.08502505       -1.40244413
 C            3.27780151        1.17372277       -1.27469441
 C            3.76128775       -0.12933298       -1.66148613
 C            2.84355179       -1.03156196       -2.31701803
 C            2.06498876        1.63223609       -1.77572430
 C            1.62555678       -0.54947187       -2.78467469
 C            1.23492712        0.77408461       -2.51481326
 C            0.65261296       -2.72890002       -2.52548496
 C           -0.58755245       -3.22442783       -1.95461779
 C            0.66210102       -1.48439623       -3.15706732
 C           -2.72669315       -2.15411619       -1.48158604
 C           -1.78103032       -2.71350369       -2.43260041
 C           -4.09012472       -0.12520863       -1.48795525
 C           -3.52068828       -1.16962451       -2.19754692
 C           -3.83514927        2.12771307       -0.87320291
 C           -2.63219685        2.92111083       -1.04410710
 C           -3.94799490        1.22688635       -2.00612965
 C           -0.61301492        2.34132881       -2.30899108
 C           -0.04589953        1.20304763       -2.89488327
 C           -1.99647505        2.49762482       -2.28396838
 C           -2.85875645        1.51985727       -2.92424827
 C           -0.50086225       -1.04217182       -3.76964457
 C           -1.72127284       -1.80286711       -3.56151798
 C           -2.81863876       -0.86485484       -3.43410931
 C           -0.83603328        0.36721176       -3.68327385
 C           -2.28580399        0.47359588       -3.62904941
