   70
C70 / DATE: 7/ 1/2024 / Origin: Program Fullerene / C70 from database
 C            1.60704059        0.07852300        4.37177076
 C            0.80510544       -1.11989156        4.21155409
 C            1.49753872       -2.00008453        3.29630853
 C            2.68732871        0.01856889        3.40219884
 C            2.62370727       -1.26261692        2.73893512
 C            2.61519132        1.20657883        2.58681547
 C            0.77242717        1.21602352        4.02910197
 C            1.45542717        1.97130316        3.00448873
 C           -0.54166786       -0.71854020        3.86992226
 C           -0.55633656        0.72888661        3.73385999
 C           -1.23384791       -1.46891696        2.92830602
 C            0.74462668       -2.78909307        2.43451240
 C           -0.64690611       -2.62799048        2.39895046
 C            1.39502865       -3.29421208        1.31271003
 C            2.84597129       -1.33192092        1.36515120
 C            2.46932254       -2.50894971        0.72697311
 C            2.85297255        1.10886391        1.22226206
 C            2.95808566       -0.15246866        0.61107743
 C            2.47723640        2.19663297        0.43895699
 C            0.70475986        2.57463385        2.00455548
 C            1.37764835        2.95769980        0.84966503
 C           -1.24524824        1.27939488        2.65823711
 C           -0.67419255        2.33102906        1.92454971
 C           -2.27978082       -0.85424922        2.24070173
 C           -2.27681090        0.53564464        2.09240090
 C           -3.12605865       -1.63264240        1.45934069
 C           -1.39344096       -3.42487622        1.53275560
 C           -2.72008157       -2.98686131        1.13716736
 C            0.62877478       -3.89082589        0.23335688
 C           -0.75039438       -3.99499458        0.36002759
 C            2.30308208       -2.53051140       -0.71397622
 C            1.21372771       -3.44441526       -1.02188425
 C            2.96971518       -0.22402039       -0.78848949
 C            2.43588692       -1.34789395       -1.43255725
 C            2.88785518        2.21353009       -0.88629642
 C            3.19652219        0.94299980       -1.51365792
 C            2.19737839        3.04680994       -1.85579188
 C            0.70252891        3.76543945       -0.05316296
 C            1.11953587        3.81601158       -1.44370843
 C           -1.40027698        2.90877219        0.87312299
 C           -0.74827500        3.77114028       -0.01016755
 C           -3.08454849        1.13292436        1.13399169
 C           -2.62366490        2.35226242        0.49256759
 C           -3.71385175       -1.06144625        0.26143770
 C           -3.71510466        0.31311765        0.11184177
 C           -2.83767075       -3.14991787       -0.30383469
 C           -1.60483766       -3.73897163       -0.79035458
 C           -3.27614032       -1.87875509       -0.85565682
 C            0.39529547       -3.17641429       -2.10876139
 C           -1.05001489       -3.24922886       -1.96569837
 C            1.78965160       -1.22365791       -2.67145080
 C            0.69531615       -2.03534262       -2.95260613
 C            2.75294270        1.01097273       -2.88874444
 C            2.09444040        2.29096784       -3.09250796
 C            1.87083255       -0.02656885       -3.37081174
 C            0.78115424        2.03787216       -3.66622628
 C            0.62896141        0.60051517       -3.79852681
 C           -0.07952756        3.84930806       -2.26463637
 C           -1.22817340        3.88184674       -1.37704607
 C           -0.29958734        2.79626663       -3.24281669
 C           -2.96686116        2.24900007       -0.92162792
 C           -3.32034701        0.86680455       -1.16744312
 C           -2.18792978        2.90759703       -1.85483071
 C           -1.54265528        2.12544478       -2.89846335
 C           -2.54799457       -1.29237073       -1.89214876
 C           -1.61853932       -2.05861967       -2.58510248
 C           -0.55940381       -1.39822311       -3.31861092
 C           -0.57695969       -0.01620643       -3.46553409
 C           -2.53760450        0.09898130       -2.02881233
 C           -1.58828476        0.72933110       -2.84763007
