   70
C70 / DATE: 7/ 1/2024 / Origin: Program Fullerene / C70 from database
 C            1.17473985       -0.01309493        4.44141098
 C            2.47598128       -0.25072485        3.86268090
 C            2.52642725       -1.65322406        3.50243282
 C            0.36012605       -1.20073650        4.20416101
 C            1.15734752       -2.12834201        3.43996890
 C           -0.89680912       -0.75012363        3.65265188
 C            0.40481427        1.11872932        3.96980033
 C           -0.96874420        0.66978599        3.93799850
 C            0.86944547        1.88711801        2.90209394
 C            2.85784200        0.50566718        2.68745314
 C            2.00280876        1.47733599        2.18156263
 C            3.32734198       -1.76662141        2.30302570
 C            3.48327155       -0.41984616        1.75748526
 C            3.00208631       -2.78496408        1.42423956
 C            0.68474791       -2.60934168        2.22078213
 C            1.61273622       -3.23505554        1.39169657
 C           -1.30218067       -1.19859531        2.39599617
 C           -0.48688346       -2.07136678        1.65787487
 C           -2.31414910       -0.48887596        1.74682077
 C           -1.87356101        1.42579745        3.22114945
 C           -2.72309299        0.74257847        2.26679077
 C           -0.02817803        2.77258181        2.29897073
 C           -1.39690241        2.62491897        2.54983142
 C            0.39242570        3.49573737        1.18597310
 C            2.12306628        1.82099196        0.83904505
 C            1.48100511        2.96377523        0.38817047
 C            3.33072382       -0.21956255        0.38045237
 C            2.57003006        0.86388002       -0.07847229
 C            3.43241256       -2.63836384        0.05307958
 C            3.57524468       -1.29251053       -0.47050455
 C            1.26951175       -3.51422790        0.01349166
 C            2.46562102       -3.32817577       -0.77581547
 C           -0.82853256       -2.36912404        0.33002531
 C            0.07938668       -3.03004792       -0.50526258
 C           -2.70687279       -0.85348818        0.45996880
 C           -2.01082873       -1.85782336       -0.21610729
 C           -3.58485695       -0.02552900       -0.24123295
 C           -3.23632310        1.76368186        1.37308512
 C           -2.37167037        2.92874741        1.50988558
 C           -3.68441643        1.37673318        0.12201499
 C           -0.59094958        4.05901802        0.27666003
 C           -1.97352322        3.63467103        0.38253173
 C            1.09618774        3.04765771       -1.00560441
 C           -0.14364995        3.79643708       -1.08088794
 C            2.12011686        0.90978397       -1.40961845
 C            1.24380240        1.92436890       -1.80542016
 C            3.00786072       -1.29338722       -1.80259243
 C            2.33988583       -2.57368887       -2.00172354
 C            2.38522571       -0.14809310       -2.28929256
 C           -0.03128877       -2.88439091       -1.88944319
 C            1.10883718       -2.54959257       -2.64061442
 C           -2.33231970       -2.14886161       -1.54525610
 C           -1.30035422       -2.67954241       -2.41968271
 C           -3.62173399       -0.08092228       -1.68674432
 C           -3.12984238       -1.20848837       -2.32024367
 C           -3.31998003        2.15643426       -1.05205233
 C           -2.40818571        3.19803902       -0.93553963
 C           -1.25349593        3.22154819       -1.81827024
 C           -3.19045217        1.22568357       -2.16142391
 C            0.29996017        1.67118362       -2.79899370
 C           -1.01360737        2.12963377       -2.64717574
 C           -2.08484398        1.30468767       -3.00592173
 C            1.58604149       -0.30368596       -3.42373418
 C            0.99085626       -1.60847778       -3.65390875
 C            0.57602223        0.68999724       -3.73586270
 C           -1.44470511       -2.04509817       -3.71828585
 C           -2.47579413       -1.03197040       -3.60371073
 C           -1.87218686        0.25794119       -3.89790459
 C           -0.28337491       -1.42028510       -4.30937330
 C           -0.52965074        0.01110528       -4.38458577
