   70
C70 / DATE: 7/ 1/2024 / Origin: Program Fullerene / C70 from database
 C            1.47747581       -0.07372812        4.90987770
 C            0.69921136       -1.29268960        4.79736434
 C            1.41699412       -2.21118170        3.92610429
 C            2.63492551       -0.21137779        4.04738271
 C            2.53349438       -1.48329676        3.34960733
 C            2.72902730        0.99593919        3.24980727
 C            0.67207147        1.01325420        4.38027987
 C            1.44235469        1.67001238        3.33918742
 C           -0.65995297       -0.91888258        4.44606845
 C           -0.63120301        0.47673470        4.03574028
 C           -1.41381667       -1.81691607        3.70401848
 C            0.68062029       -3.06293447        3.11849973
 C           -0.76951043       -3.02774480        3.21879208
 C            1.01886041       -3.17016888        1.70739015
 C            2.74666763       -1.49849525        1.97040246
 C            1.94109748       -2.29192419        1.14126545
 C            3.31625434        0.89005322        2.00101519
 C            3.45501480       -0.43653250        1.41673154
 C            2.83902915        1.75288067        0.93712945
 C            0.79526271        2.04097580        2.16126248
 C            1.55159770        2.26253892        1.00731026
 C           -1.19666136        0.83837192        2.81704807
 C           -0.58029653        1.82406239        2.03918795
 C           -2.25822859       -1.31517372        2.63123932
 C           -2.15956407        0.01470733        2.23280640
 C           -1.31140098       -3.32633035        1.90754332
 C           -0.20324995       -3.46648031        0.98245287
 C           -2.32610153       -2.33484610        1.60210911
 C           -0.36254346       -2.94486019       -0.29209417
 C            1.88044260       -2.03791933       -0.23799413
 C            0.74928280       -2.44325757       -0.96678854
 C            3.47720728       -0.26801167       -0.01932785
 C            3.26926049        1.14494869       -0.29937726
 C            2.83066818       -1.19437478       -0.82545397
 C            2.61743500        1.47243901       -1.47918239
 C            0.89053592        2.58492526       -0.17565322
 C            1.45663454        2.26030938       -1.42017546
 C           -1.22843615        2.27256102        0.89093300
 C           -0.46272626        2.88767732       -0.10004808
 C           -2.66402999        0.37214590        0.98567683
 C           -2.43466369        1.66644798        0.54019567
 C           -2.44804056       -1.91569940        0.28425485
 C           -1.62926890       -2.50755670       -0.67331468
 C           -2.91738181       -0.62678384        0.04002781
 C           -1.83229344       -2.17077928       -2.00131428
 C            0.60314416       -2.07840331       -2.30710294
 C           -0.67473363       -2.04790401       -2.86918907
 C            2.70945495       -0.85858721       -2.16889801
 C            2.74991853        0.55359406       -2.51101075
 C            1.65455004       -1.45227747       -2.96059815
 C            1.99346260        0.74000197       -3.72452140
 C            1.37747608       -0.53569249       -4.05600259
 C            0.72618881        2.51501823       -2.59317626
 C            0.95501139        1.74529699       -3.73643795
 C           -1.09399775        3.41438754       -1.21555986
 C           -0.46779125        3.23110030       -2.51250119
 C           -3.09527255        2.08816626       -0.60441503
 C           -2.51422118        3.17334059       -1.36719402
 C           -3.19600855       -0.25723990       -1.27821051
 C           -2.73521192       -1.07433774       -2.31344212
 C           -3.52796788        1.07005437       -1.54486748
 C           -1.00203472       -1.07450017       -3.90303458
 C           -0.00015562       -0.27245286       -4.43041469
 C           -0.17454925        1.17177419       -4.45095362
 C           -2.29376299       -0.49112729       -3.57391675
 C           -1.52128309        2.94262942       -3.47452547
 C           -2.78985446        2.93411265       -2.77087894
 C           -3.34816249        1.59844430       -2.88718272
 C           -1.43421940        1.71742125       -4.24693196
 C           -2.53203540        0.85414098       -3.82702202
