   70
C70 / DATE: 7/ 1/2024 / Origin: Program Fullerene / C70 from database
 C            1.16325639        0.05346468        4.69735186
 C            2.43637908       -0.13104810        4.02908923
 C            2.39600954       -1.41703021        3.35522906
 C            0.32463723       -1.09214196        4.38016512
 C            1.04904791       -1.93808134        3.45435864
 C           -0.97657731       -0.59860461        3.98030064
 C            0.39971569        1.25710488        4.42520928
 C           -0.94750699        0.85609041        4.04007657
 C            1.01099030        2.31521454        3.76608474
 C            2.87869898        0.86347905        3.06428170
 C            2.23129688        2.08767842        2.99620696
 C            2.95548038       -1.24053822        2.03412385
 C            3.21333552        0.17204156        1.83000856
 C            2.40070810       -1.93527629        0.97528324
 C            0.41168194       -2.34788225        2.28739649
 C            1.17521159       -2.59131151        1.13937614
 C           -1.63185295       -1.20510659        2.91643033
 C           -0.97106925       -2.19010351        2.17072249
 C           -2.68745329       -0.50726857        2.34130952
 C           -1.66154221        1.59052357        3.08718146
 C           -2.64932387        0.94485250        2.34707022
 C            0.17973143        3.22567773        3.00726671
 C           -1.15413909        2.80022188        2.61612989
 C            2.05973472        2.71655782        1.69989135
 C            0.90381332        3.58078618        1.79921650
 C            2.88150665        0.72995869        0.59024119
 C            2.23876617        1.96999979        0.53470985
 C            2.73513359       -1.50212127       -0.29305486
 C            2.80487344       -0.12123100       -0.51763804
 C            2.43811258       -2.35787117       -1.33588337
 C            0.56402165       -3.16429515        0.01512575
 C            1.25923052       -3.19226940       -1.19586312
 C           -1.61618570       -2.77164192        1.08522840
 C           -0.82027914       -3.31040220       -0.00642540
 C           -3.23429840       -0.93684518        1.06874814
 C           -2.78070671       -2.11862840        0.50942552
 C           -2.94831951        1.39605767        0.99521805
 C           -3.37131525        0.23815658        0.22335229
 C           -1.33255032        3.15504515        1.21510213
 C           -0.04025493        3.57590462        0.70673896
 C           -2.14274272        2.36238411        0.39908990
 C            1.53461625        2.32544336       -0.62089731
 C            0.35319789        3.07085655       -0.51723128
 C            2.43270177        0.40292368       -1.76036690
 C            1.78714947        1.64152957       -1.81513149
 C            2.48872262       -1.85749831       -2.68934947
 C            2.45267419       -0.42440230       -2.88383868
 C            0.52399032       -3.12032742       -2.45078776
 C            1.37173027       -2.43759778       -3.41434097
 C           -1.54870138       -3.07734430       -1.24559799
 C           -2.67762751       -2.21805598       -0.93364006
 C           -0.84593653       -2.86426395       -2.42926863
 C           -3.02809692        0.15870761       -1.12148676
 C           -2.90392593       -1.09893737       -1.72635555
 C           -1.83864735        2.25442989       -0.96535246
 C           -0.64970847        2.82477340       -1.43471176
 C           -2.49362192        1.29044159       -1.74120577
 C            1.03804673        1.98751922       -2.94541575
 C           -0.25504996        2.61228403       -2.74263829
 C            1.54548563       -0.16917263       -3.98713368
 C            0.79619732       -1.39722647       -4.24025679
 C            0.90963573        1.06090499       -4.05822961
 C           -1.42290583       -2.06020293       -3.41811635
 C           -2.52784197       -1.18155014       -3.06081724
 C           -0.58474434       -1.35110548       -4.37666296
 C           -2.31793857        1.29356000       -3.12147744
 C           -1.19644155        2.02638080       -3.66996937
 C           -0.45779451        1.13612111       -4.54822004
 C           -2.40378824        0.03597720       -3.83464948
 C           -1.22663317       -0.08566891       -4.68072611
