   70
C70 / DATE: 7/ 1/2024 / Origin: Program Fullerene / C70 from database
 C            1.39246247       -0.16482357        4.06837855
 C            2.43776293       -0.25250760        3.06494307
 C            2.34966863       -1.57228290        2.45521205
 C            0.51842289       -1.31495328        3.89570248
 C            1.08034401       -2.15027685        2.85088542
 C           -0.83167011       -0.81982564        3.72808846
 C            0.56001735        1.02113395        4.12048197
 C           -0.82776633        0.58242556        4.10516276
 C            0.93486096        2.13873273        3.38618065
 C            2.73292875        0.85043695        2.26343839
 C            2.02675054        2.04372475        2.42639897
 C            3.40016396        0.63413860        1.06202499
 C            2.77937919       -1.73566184        1.14290645
 C            3.55627509       -0.72717550        0.58019262
 C            2.09682964       -2.62270605        0.30282407
 C            0.24743980       -2.64736232        1.85760355
 C            0.83189242       -3.09640956        0.67376148
 C           -1.55544364       -1.22743263        2.61156652
 C           -1.11731473       -2.33122103        1.88090132
 C           -2.52009059       -0.37876904        2.06048314
 C           -1.80467695        1.41433498        3.57812936
 C           -2.78333558        0.84592604        2.66770194
 C           -0.08851565        2.99755111        2.81324599
 C           -1.42882495        2.71618028        3.04821975
 C            1.65773714        2.81806994        1.24915805
 C            0.34159948        3.37809611        1.47323183
 C            3.07656099        1.46429657       -0.08904105
 C            1.99856247        2.33617401       -0.00918124
 C            3.71326552       -0.65956404       -0.86006964
 C            3.26926856        0.66389607       -1.28048348
 C            2.55119713       -2.80145019       -1.00557585
 C            3.36150480       -1.76274812       -1.62184787
 C            1.65610906       -3.33301803       -2.02286373
 C            0.04978194       -3.78968241       -0.24395077
 C            0.38127373       -3.73123899       -1.65337188
 C           -1.94817148       -2.82069293        0.88047950
 C           -1.39157999       -3.68339665       -0.14305128
 C           -2.99599141       -0.62026712        0.76802718
 C           -2.86068106       -1.89570145        0.23363845
 C           -3.21789775        0.45377044       -0.09860052
 C           -3.29770099        1.93202320        1.85890803
 C           -2.40474666        3.06890092        2.03431591
 C           -3.45646779        1.72104355        0.43110081
 C           -0.57334410        3.39577171        0.42840658
 C           -1.93804535        3.45013862        0.71420601
 C           -2.87963087        2.87846727       -0.22966152
 C            1.06196241        2.38016287       -1.05095613
 C           -0.15770905        3.05625049       -0.86146488
 C            2.37388457        0.78585899       -2.33548845
 C            1.34179942        1.72635079       -2.26580952
 C            2.85171865       -1.53921838       -2.96065326
 C            1.80669839       -2.51709875       -3.21401074
 C            2.31663203       -0.22982550       -3.29081589
 C            0.64805280       -1.79985660       -3.71897506
 C            1.08555188       -0.44954868       -4.02873462
 C           -0.76548792       -3.14648084       -2.33471647
 C           -1.89156726       -3.22487978       -1.43018750
 C           -2.67811730       -2.03215420       -1.19984334
 C           -0.58806021       -2.00068561       -3.10507071
 C           -2.87625311        0.33638084       -1.45055303
 C           -2.42323013       -0.88900486       -1.94814433
 C           -1.48377292       -0.92824722       -2.99302141
 C           -2.48185115        2.74735821       -1.54654803
 C           -1.11100586        3.08505881       -1.87635058
 C           -2.74493430        1.48968599       -2.21767304
 C            0.43336867        1.77932035       -3.32031908
 C            0.14404908        0.56113354       -4.05144380
 C           -1.23036900        0.22350644       -3.73648634
 C           -0.83091936        2.45302276       -3.14443107
 C           -1.88060381        1.46684466       -3.37651023
