   70
C70 / DATE: 7/ 1/2024 / Origin: Program Fullerene / C70 from database
 C            1.37491987        0.03362828        4.61698035
 C            0.62539319       -1.13579268        4.20122742
 C            1.42490081       -1.87000664        3.24930389
 C            2.58501542        0.08708887        3.81571350
 C            2.59060537       -1.05416382        2.93306282
 C            2.65183446        1.39545824        3.21985637
 C            0.57898394        1.20577212        4.28942992
 C            1.41028840        2.09136481        3.51997318
 C           -0.67551719       -0.69211282        3.77057317
 C           -0.65574355        0.75860333        3.69321884
 C           -1.28788366       -1.36242563        2.73011346
 C            0.78315418       -2.52448981        2.20275774
 C           -0.60085837       -2.36279612        2.02503078
 C            1.56266852       -2.84135699        1.10253450
 C            2.94071994       -0.88353919        1.59392647
 C            2.64552383       -1.94029555        0.73650105
 C            3.14932437        1.52958543        1.93051552
 C            3.10767314        0.41374712        1.06607273
 C            3.00214610        2.80091938        1.39126774
 C            0.84400429        2.83316500        2.49209254
 C            1.76672539        3.50528377        1.70220701
 C           -1.11486843        1.36389278        2.51893857
 C           -0.35776425        2.38061272        1.90185459
 C           -2.29012679       -0.68072009        2.06975293
 C           -2.07637556        0.67097588        1.77360243
 C           -3.13771171       -1.43512772        1.28489273
 C           -1.23133538       -2.92472349        0.89972976
 C           -2.58868343       -2.64373617        0.69817288
 C            0.92529881       -3.29031339       -0.11262707
 C           -0.45772823       -3.41982527       -0.16149496
 C            2.55302936       -1.70640817       -0.68960568
 C            1.60804976       -2.65982960       -1.23185315
 C            3.04427674        0.60282458       -0.33026092
 C            2.53686251       -0.40514353       -1.14767171
 C            3.29135190        3.01017965       -0.00318224
 C            3.21038122        1.86751356       -0.88237520
 C            1.31822899        4.16838869        0.50711453
 C            2.36866845        4.02239142       -0.48630778
 C           -0.71239996        2.80215096        0.60490177
 C            0.07566364        3.72526220       -0.08076224
 C           -2.48385843        1.18090525        0.53997524
 C           -1.65172193        2.07243205       -0.12591763
 C           -3.93513325       -0.76435370        0.28628038
 C           -3.49084861        0.53563563       -0.17081035
 C           -3.19306514       -2.80554280       -0.61266960
 C           -4.03595326       -1.64539061       -0.86130594
 C           -1.02326028       -3.58729120       -1.42455961
 C           -2.43178281       -3.31798445       -1.64890954
 C            0.86066046       -2.33022999       -2.35447856
 C           -0.28758188       -3.09080498       -2.57640987
 C            1.78728666       -0.07694305       -2.28229378
 C            0.97196560       -1.03921479       -2.89869451
 C            2.38083901        2.23942882       -2.01452254
 C            1.75472228        3.50904423       -1.69162263
 C            0.31657085        3.51234370       -1.49670368
 C            1.57117526        1.26916044       -2.59143913
 C           -1.56038022        2.03401545       -1.52464546
 C           -0.40613087        2.51724807       -2.13514130
 C            0.29037849        1.65429749       -2.97420852
 C           -3.40744994        0.48878097       -1.61933884
 C           -3.80856753       -0.84725549       -2.05158296
 C           -2.35682042        1.14693874       -2.25346752
 C           -2.56867920       -2.74758672       -2.98226564
 C           -1.24670133       -2.70015097       -3.58626820
 C           -3.18095765       -1.43667759       -3.14092754
 C            0.04624025       -0.59134558       -3.84591975
 C           -0.44671679        0.76622669       -3.73353828
 C           -1.86989820        0.66583981       -3.46918085
 C           -1.08991818       -1.41323641       -4.21752868
 C           -2.29310904       -0.63429115       -3.95708294
