   70
C70 / DATE: 7/ 1/2024 / Origin: Program Fullerene / C70 from database
 C            1.46838950        0.03523514        4.65518574
 C            0.69511996       -1.16791217        4.42525277
 C            1.32141890       -1.91745354        3.34876784
 C            2.61410625       -0.00423670        3.76699440
 C            2.53260048       -1.20869333        2.96877638
 C            2.66256307        1.25813029        3.06443608
 C            0.64124283        1.16244987        4.25478992
 C            1.38010600        1.91755113        3.27387704
 C           -0.68152587       -0.76033526        4.24768468
 C           -0.65655476        0.64789158        3.88139292
 C           -1.49328479       -1.59339455        3.50477850
 C            0.49933532       -2.45684628        2.35666509
 C           -0.85932650       -2.57814545        2.63571585
 C            0.92710165       -2.43222068        1.02355197
 C            2.85001427       -1.11462809        1.62366391
 C            2.21419716       -1.97445636        0.73227843
 C            3.18844860        1.27773014        1.77743142
 C            3.44773106        0.05678493        1.14142565
 C            2.85408503        2.37649158        0.99413544
 C            0.71907529        2.42223107        2.15966768
 C            1.53421550        2.95892167        1.17328106
 C           -1.23005403        1.03882681        2.66777415
 C           -0.53456808        1.89591999        1.79758344
 C           -2.52642329       -0.98262596        2.70183300
 C           -2.30605735        0.29193264        2.18103154
 C           -1.79227148       -2.84662032        1.55734587
 C           -2.97162827       -2.02852906        1.81123744
 C            0.01811734       -2.66285845       -0.02280141
 C           -1.32105695       -2.96479186        0.25298203
 C            0.40783848       -2.43075632       -1.34606022
 C            2.69382500       -2.06207487       -0.56613186
 C            1.74791093       -2.24457184       -1.64858067
 C            3.93169486        0.06382868       -0.16475947
 C            3.68877748       -1.09908577       -0.99986420
 C            3.15755843        2.37431535       -0.42512492
 C            3.74156882        1.24748559       -0.98904124
 C            0.99278233        3.23616201       -0.13539735
 C            2.05795774        3.04016735       -1.10458541
 C           -1.04889108        2.12765170        0.51219533
 C           -0.29005808        2.81230732       -0.44731909
 C           -2.88761487        0.62346580        0.95727362
 C           -2.29953945        1.60910522        0.16318596
 C           -3.76143144       -1.66552182        0.73866625
 C           -3.82273334       -0.25349697        0.39715162
 C           -2.25769720       -2.93326871       -0.78187020
 C           -3.57533937       -2.38878733       -0.50177511
 C           -0.54574859       -2.05476785       -2.28682144
 C           -1.85971724       -2.45749566       -2.09607649
 C           -0.23977295       -1.06579280       -3.22790374
 C            2.09238216       -1.31657416       -2.71040856
 C            3.31775519       -0.63660719       -2.32592558
 C            3.34291306        0.81361737       -2.32018039
 C            1.07164597       -0.59408239       -3.32290124
 C            1.71905509        2.66692731       -2.39624799
 C            2.34313176        1.49720526       -3.00029105
 C            1.29216214        0.74110683       -3.66679291
 C           -0.66799309        2.78168447       -1.78932750
 C            0.31496371        2.65257507       -2.77323441
 C            0.15912954        1.63853030       -3.80369387
 C           -2.83564704        1.89468632       -1.09185704
 C           -1.97804331        2.46267169       -2.11582491
 C           -4.14275174       -0.17022180       -1.01671925
 C           -3.93403230       -1.49403805       -1.58488342
 C           -2.94804047       -1.65909370       -2.63854644
 C           -3.71638786        0.93314165       -1.73718027
 C           -1.26620702       -0.33451467       -3.82650952
 C           -1.09903185        1.09742392       -4.00723203
 C           -2.22311893        1.74102165       -3.35306478
 C           -2.64666807       -0.56556160       -3.43529120
 C           -3.22170424        0.72488386       -3.08778782
