   70
C70 / DATE: 7/ 1/2024 / Origin: Program Fullerene / C70 from database
 C            1.21608120       -0.04469609        4.36854152
 C            2.50141262       -0.28776903        3.75703130
 C            2.54674847       -1.68584591        3.37718878
 C            0.40247010       -1.24181997        4.19073944
 C            1.19526191       -2.21080860        3.47409377
 C           -0.85779064       -0.82600658        3.62050389
 C            0.42805136        1.07790176        3.90041121
 C           -0.93928919        0.60912092        3.82076482
 C            0.90807052        1.90067610        2.88074727
 C            2.86801834        0.48802539        2.59187898
 C            2.09860023        1.57713482        2.20778348
 C            3.22182151       -1.77711367        2.09237691
 C            3.30597903       -0.42807552        1.55321950
 C            2.83687576       -2.79812366        1.24300448
 C            0.66810022       -2.84779074        2.35663372
 C            1.59243684       -3.48745620        1.54017934
 C           -1.27100104       -1.36076040        2.40048188
 C           -0.54686203       -2.40055772        1.79720066
 C           -2.23538916       -0.66894572        1.66489555
 C           -1.82858651        1.32542971        3.04291301
 C           -2.64087715        0.59908931        2.08775622
 C            0.00699882        2.78479216        2.27247088
 C           -1.36257939        2.52726195        2.36531774
 C            0.45967796        3.60725216        1.24215606
 C            2.27690739        2.04808144        0.91690634
 C            1.72295515        3.27796103        0.61452554
 C            2.91975151       -0.17100281        0.23218494
 C            2.52260364        1.12180348       -0.10580619
 C            2.80826667       -2.53793806       -0.18098549
 C            2.60723233       -1.23126109       -0.62570240
 C            1.14711646       -4.09883265        0.31556763
 C            2.01599443       -3.60553852       -0.74566254
 C           -0.97605679       -2.90172140        0.55686603
 C           -0.21220011       -3.86118635       -0.10912457
 C           -2.60545760       -1.11777490        0.39818554
 C           -1.99305735       -2.24691075       -0.14785605
 C           -3.41178029       -0.30860480       -0.40468581
 C           -3.09645425        1.56830888        1.10956598
 C           -2.20634020        2.71403236        1.19140478
 C           -3.49730654        1.11311496       -0.12977453
 C           -0.45661269        3.96703973        0.17204698
 C           -1.64586898        3.25194290        0.03513496
 C            1.66704607        3.70398745       -0.76597827
 C            0.35083145        4.28034431       -0.98937961
 C            2.09944105        1.38690092       -1.40840134
 C            1.88991596        2.70981193       -1.79404513
 C            1.86340475       -0.99071406       -1.79552587
 C            1.64013911        0.33296096       -2.21169830
 C            1.16897665       -3.30574726       -1.87192162
 C           -0.15161300       -3.82578235       -1.55426151
 C            1.25943316       -2.05966394       -2.48271047
 C           -2.24527761       -2.59309860       -1.48081983
 C           -1.23148017       -3.30506009       -2.24169745
 C           -3.37067329       -0.45514381       -1.84526119
 C           -2.85269087       -1.62170031       -2.37818422
 C           -3.04859120        1.81280755       -1.32052030
 C           -2.07319618        2.80249311       -1.22621956
 C           -2.97497565        0.83669013       -2.40170580
 C           -0.09998778        3.83742589       -2.28599807
 C            0.94421050        2.99249448       -2.84696728
 C           -1.34402246        3.09998507       -2.37532605
 C            0.80756157        0.59767615       -3.31280369
 C           -1.94303106        0.91960192       -3.34313206
 C            0.29756591        1.87610809       -3.49041731
 C           -1.13992589        2.05806359       -3.36582642
 C            0.32032373       -1.79314186       -3.46908069
 C           -0.94795676       -2.50254104       -3.41686913
 C           -2.01397337       -1.52808598       -3.55433205
 C            0.04004685       -0.42715038       -3.83842439
 C           -1.40542400       -0.25194977       -3.87357391
