   70
C70 / DATE: 7/ 1/2024 / Origin: Program Fullerene / C70 from database
 C            1.63099232        0.17478231        4.76477815
 C            0.79267376       -1.00127499        4.61845923
 C            1.43977822       -1.88488503        3.67092309
 C            2.64607328        0.12927580        3.72396487
 C            2.55303562       -1.15447812        3.07975071
 C            2.49878784        1.30878307        2.90308228
 C            0.80460926        1.33637955        4.50751042
 C            1.51235389        2.16083569        3.55144878
 C           -0.55879143       -0.56371814        4.33508622
 C           -0.52828746        0.87927070        4.15135804
 C           -1.32663939       -1.33112397        3.47726423
 C            0.65665540       -2.67347086        2.82941198
 C           -0.72972175       -2.48642516        2.81335765
 C            1.27673031       -3.19309880        1.69774865
 C            2.72443884       -1.24012547        1.70572694
 C            2.41381798       -2.46892424        1.15160407
 C            2.47222779        1.17938725        1.50956726
 C            2.59062655       -0.08559460        0.91079325
 C            1.98240043        2.24908009        0.76063169
 C            0.75359776        2.98187020        2.74289566
 C            1.23294866        3.23432495        1.40569108
 C           -1.15256122        1.46198482        3.04446055
 C           -0.66731349        2.68750778        2.59630806
 C           -2.16567585       -0.66170856        2.50335590
 C           -1.92632476        0.67391837        2.18410314
 C           -1.48239847       -2.70855028        1.58352365
 C           -2.41956018       -1.60988140        1.43525819
 C            0.47680942       -3.63844199        0.57109966
 C           -0.83756947       -3.19889289        0.45238502
 C            2.38031391       -2.61215990       -0.28042791
 C            1.34948754       -3.59188512       -0.58694181
 C            2.41632140       -0.21282523       -0.48012350
 C            2.49560744       -1.48054874       -1.07576570
 C            1.90562331        2.15724928       -0.62904470
 C            2.06125385        0.90898369       -1.25110981
 C            1.28072571        3.20477182       -1.31047115
 C            0.10724519        3.81576986        0.71190560
 C           -1.06714624        3.18799631        1.29294746
 C            0.18558520        3.90034376       -0.66116007
 C           -2.26372583        1.13259693        0.90284068
 C           -1.87802854        2.40941712        0.47473605
 C           -2.67408035       -1.12501019        0.16494217
 C           -2.85154095        0.24686259       -0.00427478
 C           -1.34258806       -2.88367977       -0.81383532
 C           -2.34611074       -1.91652075       -0.93483997
 C            0.77998177       -3.56788911       -1.84732154
 C           -0.64563707       -3.30461969       -1.94921564
 C            2.23519214       -1.62943873       -2.43102145
 C            1.43485544       -2.76521276       -2.86237039
 C            1.82363025        0.77479627       -2.63154671
 C            1.82304820       -0.48540121       -3.20768290
 C            0.89236029        3.03561679       -2.69149600
 C            1.10869940        1.75393481       -3.30931116
 C           -0.99804154        3.58510420       -1.43511527
 C           -1.96376060        2.74297027       -0.88162849
 C           -0.52956506        3.33778115       -2.78498065
 C           -3.29231673        0.72047001       -1.23276115
 C           -2.76374674        1.97644250       -1.72561590
 C           -2.78029304       -1.52331903       -2.19698376
 C           -3.36408748       -0.20276393       -2.35108233
 C           -0.87907446       -2.65418747       -3.23014477
 C            0.41255553       -2.27870961       -3.77002146
 C            0.67910093       -0.87628138       -4.02265948
 C           -1.92732224       -1.75654584       -3.34776205
 C           -0.11746917        1.37088181       -3.99070817
 C           -1.16264816        2.28960724       -3.55964914
 C           -2.37322398        1.78071116       -3.11798264
 C           -2.73258466        0.43071810       -3.49737708
 C           -0.38811644        0.01096835       -4.14647132
 C           -1.69419326       -0.46380165       -3.98001624
