   70
C70 / DATE: 7/ 1/2024 / Origin: Program Fullerene / C70 from database
 C            1.47966362       -0.25306480        5.03673061
 C            0.60821385       -1.40651364        4.94247148
 C            1.17992418       -2.30809832        3.95898788
 C            2.55837614       -0.43028157        4.07692730
 C            2.31763338       -1.65189023        3.34566860
 C            2.66596078        0.79313406        3.32204176
 C            0.71685039        0.90781627        4.61370539
 C            1.55400386        1.65251481        3.70614267
 C           -0.66854265       -0.95498760        4.41499499
 C           -0.56324698        0.45733954        4.11383874
 C            0.10349064       -2.72617903        3.08530346
 C           -1.02687315       -1.84782914        3.33636556
 C            0.40325577       -2.99153531        1.75485393
 C            2.37424527       -1.63241998        1.95432287
 C            1.65302734       -2.60662087        1.26477924
 C            2.98669305        0.73224912        1.96800645
 C            2.77519202       -0.47003878        1.26907110
 C            2.86562963        1.93242584        1.27780244
 C            0.95123700        2.37684718        2.68897854
 C            1.81893441        2.84015190        1.71620253
 C           -0.96870870        0.90162844        2.85638926
 C           -0.35102796        2.02764010        2.29280695
 C           -1.67822321       -1.32850107        2.22532713
 C           -1.73036085        0.05601140        2.03856641
 C           -0.66089188       -3.00568827        0.86151287
 C           -1.72472894       -2.13080045        1.09686805
 C           -0.42635636       -3.44899299       -0.43612363
 C            1.90581168       -2.76845449       -0.08952561
 C            0.87010694       -3.33786811       -0.93879021
 C            2.72780866       -0.46294890       -0.13651004
 C            2.50296422       -1.65921575       -0.81164550
 C            2.84754256        1.93286821       -0.16916495
 C            2.58929915        0.74299657       -0.83227759
 C            1.27515453        3.47996084        0.54702199
 C            2.14073879        3.13533411       -0.56703124
 C           -0.86008300        2.53694698        1.09146624
 C           -0.09782033        3.45643944        0.35492553
 C           -2.20150738        0.54850168        0.81873926
 C           -1.92929770        1.87179878        0.48112188
 C           -2.50095058       -1.71612089        0.02704284
 C           -2.68931103       -0.33864729       -0.15779813
 C           -1.49735024       -3.47129991       -1.32295540
 C           -2.61984457       -2.59467655       -1.04202094
 C           -1.22629404       -3.39062066       -2.74559525
 C            1.08437403       -2.81076625       -2.27860245
 C            1.90374653       -1.62163297       -2.13467378
 C            0.02405318       -2.79279425       -3.17004762
 C            1.94472910        0.77278797       -2.07765805
 C            1.44733362       -0.40592801       -2.62934304
 C            1.61101089        3.20605112       -1.84358964
 C            1.55910395        1.98966706       -2.63987063
 C           -0.56850762        3.92522213       -0.86654721
 C            0.33603810        3.88339898       -2.00546820
 C           -2.52974783        2.41337155       -0.64413314
 C           -1.87494240        3.51013213       -1.32823295
 C           -3.17737735        0.15853424       -1.38048496
 C           -3.04737972        1.51703811       -1.65837582
 C           -3.14214020       -2.11518745       -2.29796874
 C           -2.31105661       -2.65152277       -3.36327197
 C           -3.24004442       -0.68808513       -2.48829716
 C           -0.29787694       -1.54829419       -3.85140238
 C            0.31478886       -0.36354785       -3.45164981
 C           -1.72774891       -1.52583702       -4.06915714
 C           -2.44643450       -0.33965683       -3.65894511
 C            0.34922899        2.03204456       -3.44465645
 C           -0.36352208        3.25280142       -3.10724136
 C           -1.75632340        3.15432059       -2.73442054
 C           -2.41137984        1.87999294       -2.91264413
 C           -0.36205885        0.84854888       -3.63537979
 C           -1.76820493        0.87003032       -3.61748338
