   70
C70 / DATE: 7/ 1/2024 / Origin: Program Fullerene / C70 from database
 C            1.20736735       -0.04327732        4.38816969
 C            2.45935515       -0.28063349        3.71471433
 C            2.41378235       -1.64085711        3.20785064
 C            0.37433874       -1.22310082        4.18651911
 C            1.02734032       -2.04274402        3.19323243
 C           -0.96097537       -0.75129843        3.91472303
 C            0.41088243        1.09769840        3.98817171
 C           -0.95982832        0.67953447        4.17460796
 C            0.73643299        1.80966287        2.83210592
 C            2.81694169        0.57075107        2.59817942
 C            1.90278647        1.49751545        2.10988251
 C            3.11479553       -1.64339339        1.95071418
 C            3.51011986       -0.27569799        1.65014324
 C            2.59907926       -2.38803730        0.90501169
 C            0.41175208       -2.24965870        1.95760003
 C            1.20624838       -2.59669877        0.85535946
 C           -1.63656681       -1.21901081        2.79192525
 C           -0.91343247       -1.83150440        1.75280538
 C           -2.85689021       -0.61495764        2.51325240
 C           -1.96043510        1.43966715        3.59736760
 C           -3.08504349        0.72884392        3.02006346
 C           -0.25149268        2.61201054        2.24754297
 C           -1.58198939        2.48152534        2.65134144
 C            0.01384377        3.26877083        1.05152437
 C            2.05255149        1.94635135        0.79860065
 C            1.24889239        2.98618428        0.34852681
 C            3.55561386        0.09642189        0.30727540
 C            2.86605789        1.24478824       -0.10439387
 C            3.29534835       -2.25662272       -0.28334179
 C            3.77928967       -0.92800496       -0.61731211
 C            2.76238308       -2.86056550       -1.47588301
 C            0.58512268       -2.89355476       -0.36457234
 C            1.36321217       -3.21669760       -1.47759120
 C           -1.48412291       -1.96214920        0.47887835
 C           -0.77124060       -2.60375059       -0.53887209
 C           -3.40147672       -0.67244132        1.17453038
 C           -2.71324671       -1.35802899        0.18338259
 C           -3.60333471        1.53331385        1.93237843
 C           -2.63899969        2.58217675        1.65411904
 C           -3.96709268        0.63262684        0.86148448
 C           -1.04440164        3.39272226        0.05820732
 C           -2.30189911        2.85943936        0.33011523
 C            0.99312303        3.13917224       -1.07194950
 C           -0.44522905        3.20363934       -1.25429467
 C            2.80705678        1.55185024       -1.46492807
 C            1.75299543        2.41391598       -1.96953658
 C            3.53236009       -0.71065060       -2.03250646
 C            2.98599558       -1.93856263       -2.57919684
 C            3.01047273        0.50247737       -2.44719350
 C            0.87190672       -2.90636111       -2.80430597
 C            1.75790643       -1.88557406       -3.35020038
 C           -1.34351183       -2.71404116       -1.80856562
 C           -0.49050257       -2.76916367       -2.98603973
 C           -3.06017396       -1.11359514       -1.14406307
 C           -2.49061513       -1.89030119       -2.14072916
 C           -3.85827507        1.09542572       -0.43826777
 C           -3.03525208        2.27153761       -0.70438307
 C           -3.57691361        0.13539904       -1.48673293
 C           -1.06862370        2.37169741       -2.18052453
 C           -2.42032640        2.08629450       -2.01329963
 C           -2.97803028        0.87368809       -2.58423186
 C            1.08871637        1.71107491       -3.05425196
 C            1.87911174        0.52962988       -3.36673884
 C            1.23059247       -0.65104352       -3.73434929
 C           -0.30144829        1.62887541       -3.08626876
 C           -0.95028927       -1.74721454       -3.90528518
 C           -2.23683448       -1.27687292       -3.43380299
 C           -2.24525944        0.17181836       -3.52532718
 C           -0.10303430       -0.58913949       -4.13077936
 C           -0.88698726        0.59870494       -3.82058758
