   70
C70 / DATE: 7/ 1/2024 / Origin: Program Fullerene / C70 from database
 C            1.40388685        0.01964004        4.99449776
 C            0.62997362       -1.17100722        4.69866265
 C            1.52624848       -2.11795564        4.07575214
 C            2.65483504       -0.07668173        4.25792194
 C            2.74574835       -1.41040227        3.71220179
 C            2.70981197        1.04139819        3.34159889
 C            0.67287523        1.15967974        4.47231191
 C            1.56743824        1.90142785        3.60997460
 C           -0.56154017       -0.76760753        3.96719508
 C           -0.56605361        0.68319522        3.89520752
 C           -0.95577648       -1.49116140        2.84039838
 C            1.06184592       -2.79897339        2.89008669
 C           -0.26309167       -2.66099289        2.49394882
 C            2.93140282       -1.56630829        2.27790799
 C            2.08228052       -2.66351080        1.86578461
 C            3.08014299        0.84151558        2.01226064
 C            3.01207732       -0.44662524        1.45487117
 C            2.93550721        1.93906094        1.17319276
 C            1.02139181        2.59201429        2.53371910
 C            1.88343761        2.89191402        1.48307366
 C           -1.00224165        1.28285969        2.72204832
 C           -0.33826259        2.41981739        2.25125111
 C           -1.74894300       -0.84971079        1.87801679
 C           -1.79362077        0.54521584        1.84090118
 C           -2.27186681       -1.58623081        0.81547331
 C           -0.58802389       -3.28294000        1.30054269
 C           -1.77333836       -2.86482320        0.58935604
 C            1.66524463       -2.74305067        0.54081205
 C            0.46836527       -3.41105892        0.30713754
 C            2.73342601       -0.60277288        0.09211385
 C            2.04941618       -1.74541416       -0.35968024
 C            2.95187382        1.75298310       -0.26180151
 C            2.96469260        0.46576949       -0.77867632
 C            1.34754021        3.39582912        0.23090105
 C            2.05060261        2.73137837       -0.85195657
 C           -0.88945459        3.09703409        1.17047510
 C           -0.01384347        3.60283429        0.12215775
 C           -2.38243080        1.19492424        0.75781168
 C           -2.05220884        2.52806475        0.51517516
 C           -2.96473953       -0.94247669       -0.21532596
 C           -3.02516118        0.45860152       -0.23960369
 C           -3.28228010       -1.68714796       -1.35668635
 C           -1.59018532       -3.31641059       -0.77466244
 C           -0.15575791       -3.32896856       -1.00012982
 C           -2.40038275       -2.76858486       -1.74711780
 C            1.56808448       -1.79021365       -1.67161048
 C            0.38254226       -2.48031678       -1.96187131
 C            2.68608387        0.32125064       -2.13309894
 C            2.11083797       -0.92005583       -2.60462377
 C            1.38320495        2.38646548       -2.02580671
 C            1.97786842        1.39998959       -2.80468486
 C           -0.66281106        3.35069772       -1.15097260
 C           -2.04224210        3.02205744       -0.84845019
 C            0.00497918        2.63624897       -2.14833165
 C           -3.47263856        1.13625383       -1.37859194
 C           -2.77655657        2.33775284       -1.79483928
 C           -3.67692563       -1.02639960       -2.58462968
 C           -3.78261085        0.41067449       -2.59320379
 C           -1.79424809       -2.35725779       -2.99904445
 C           -0.42539928       -2.09290370       -3.04031127
 C           -2.71756108       -1.41425793       -3.60994262
 C            1.37250952       -0.62038615       -3.81472510
 C            1.25336093        0.82770274       -3.91391261
 C            0.04701097       -1.17805458       -3.97603056
 C           -0.75348311        2.01564677       -3.15429348
 C           -2.14645766        2.02311961       -3.06381124
 C           -2.90504404        0.92196250       -3.63762457
 C           -2.19100743       -0.20326131       -4.21543633
 C           -0.14951495        1.14421180       -4.05884720
 C           -0.82084397       -0.09526836       -4.41440638
