   70
C70 / DATE: 7/ 1/2024 / Origin: Program Fullerene / C70 from database
 C            1.19481401       -0.05316102        4.85213378
 C            2.50273434       -0.38845418        4.32945126
 C            2.36810101       -1.63161461        3.57867649
 C            0.34489732       -1.21233154        4.64931343
 C            0.97268331       -2.02444935        3.62361514
 C           -0.99315767       -0.71790176        4.41133243
 C            0.48705411        1.08960619        4.29577364
 C           -0.91377926        0.73129123        4.28554555
 C            1.02110306        1.76674308        3.19841977
 C            3.15889333        0.57144383        3.46681537
 C            2.38891840        1.68735070        2.94150741
 C            2.99171513       -1.43547298        2.28356974
 C            3.67258554       -0.15922866        2.32354712
 C            2.28186282       -1.75816687        1.13210631
 C            0.29891837       -2.25170978        2.42354406
 C            1.03176990       -2.36936776        1.23637779
 C           -1.70934756       -1.20031698        3.24898944
 C           -1.08800301       -2.07309265        2.35771664
 C           -1.71706598        1.11036866        3.14145015
 C           -2.42299474       -0.07000700        2.69266037
 C            0.17598601        2.28975808        2.21119097
 C           -1.18239240        1.94233173        2.17351811
 C            0.74126907        2.91498637        1.09554059
 C            2.86306677        1.91595002        1.58945368
 C            3.54767987        0.70755666        1.16928463
 C            2.01384948        2.52227949        0.67200831
 C            2.62559651       -1.13637642       -0.06706944
 C            3.16571222        0.15637153       -0.04476336
 C            2.05351084       -1.60833615       -1.24699605
 C            0.36753980       -2.73672274        0.06638485
 C            0.98434180       -2.50354626       -1.16889070
 C           -1.72136214       -2.28101184        1.13568094
 C           -1.01347306       -2.92403352        0.12564914
 C           -2.78999194       -0.15749701        1.35631937
 C           -2.76408484       -1.41991972        0.78166072
 C           -1.86943480        2.04383589        0.96818016
 C           -2.62023580        0.95037577        0.51604532
 C           -0.11124874        3.52163279        0.17597311
 C           -1.47335750        3.02842692        0.07840741
 C            0.36934930        3.75881871       -1.17319601
 C            2.22387050        2.26095823       -0.68508940
 C            2.80287996        1.04166892       -1.05328653
 C            1.53112958        3.02004272       -1.62265765
 C            2.26790168       -0.89082406       -2.42327015
 C            2.59070153        0.51846724       -2.32153417
 C            1.37579656       -1.06316012       -3.55670401
 C            0.35749390       -2.92183266       -2.34021858
 C            0.44434603       -2.09079050       -3.52861646
 C           -1.70660234       -3.32756918       -1.00994826
 C           -0.99495875       -3.43685266       -2.26742720
 C           -3.37021649       -1.57038864       -0.45388163
 C           -2.98366247       -2.69712545       -1.28072216
 C           -2.90601537        0.80589698       -0.85137743
 C           -3.45894633       -0.39657101       -1.30392613
 C           -1.80961117        2.89883498       -1.32479406
 C           -0.72015581        3.47869718       -2.09163585
 C           -2.40377256        1.72655563       -1.77732973
 C            1.22153817        2.45856652       -2.92694632
 C            1.77752765        1.23867892       -3.28566161
 C            0.98358926        0.26205238       -4.01620953
 C           -0.18080169        2.72971072       -3.21210212
 C           -2.19366173        1.34041547       -3.10230193
 C           -0.35062041        0.53042505       -4.30150750
 C           -0.96997294        1.73834505       -3.78039604
 C           -0.91161420       -1.84524614       -3.99264135
 C           -1.78509850       -2.76933227       -3.29223508
 C           -2.98829095       -2.25848455       -2.66428124
 C           -3.23761684       -0.82710249       -2.67517294
 C           -1.33424465       -0.53840807       -4.22033238
 C           -2.50493453       -0.01203703       -3.52472022
