   70
C70 / DATE: 7/ 1/2024 / Origin: Program Fullerene / C70 from database
 C            1.16544844       -0.06062128        4.58944016
 C            2.49052788       -0.28550298        4.04974363
 C            2.45795624       -1.54880070        3.32465636
 C            0.36792560       -1.23372658        4.27101410
 C            1.08152534       -1.99375240        3.27324418
 C           -0.95577383       -0.77951984        3.93408140
 C            0.41276122        1.10974642        4.16782460
 C           -0.94159697        0.67319287        3.88940769
 C            1.00074052        2.05098941        3.33474464
 C            3.07455193        0.70869478        3.16781717
 C            2.37650237        1.88035895        2.88362690
 C            3.16233203       -1.35375737        2.07811977
 C            3.72623439       -0.01615770        2.09082711
 C            2.59909098       -1.81771167        0.89680790
 C            0.47821439       -2.19314863        2.03172993
 C            1.27158848       -2.27486350        0.88465816
 C           -1.64866017       -1.42415503        2.92285728
 C           -0.91202370       -2.05580889        1.90100883
 C           -2.85017432       -0.82447759        2.59132664
 C           -1.68908971        1.28934975        2.88494652
 C           -2.85260379        0.62803996        2.50590968
 C            0.22892749        2.60032682        2.23038339
 C           -1.02873834        2.07909289        1.93407104
 C            2.48133373        2.47560756        1.56191961
 C            1.14965780        2.89032678        1.14747072
 C            3.93939233        0.61440297        0.87216833
 C            3.33499910        1.91573896        0.62047624
 C            3.18884449       -1.41420583       -0.29866436
 C            3.80788317       -0.16810684       -0.34888358
 C            2.73026582       -1.96885401       -1.48308206
 C            0.67881038       -2.60510706       -0.33195086
 C            1.50315214       -2.73744234       -1.44378917
 C           -1.50556369       -2.28507733        0.64620243
 C           -0.70222297       -2.43439206       -0.48969268
 C           -3.59896397       -1.34160432        1.47670470
 C           -2.87733024       -2.09934790        0.48270056
 C           -3.50289979        0.98241948        1.26399313
 C           -4.20193992       -0.20505128        0.80821652
 C           -1.49246734        2.12039192        0.61056963
 C           -2.81097248        1.74497503        0.33053229
 C            0.74446403        2.67113261       -0.16367420
 C           -0.60511868        2.42557870       -0.43556354
 C            2.95896689        1.95983203       -0.78181070
 C            3.45079636        0.74823121       -1.41699325
 C            1.70879190        2.44262826       -1.14938256
 C            2.66994224       -1.13194166       -2.67071981
 C            2.77729717        0.25177648       -2.53077672
 C            0.93142461       -2.70324181       -2.77061831
 C            1.65883726       -1.70387025       -3.54168970
 C           -1.27173373       -2.30538779       -1.77021947
 C           -0.47835182       -2.42266372       -2.90753692
 C           -3.38720102       -1.68501761       -0.81086301
 C           -4.19956965       -0.48754963       -0.60894335
 C           -2.54599598       -1.75369103       -1.91549305
 C           -3.26348349        1.73442528       -0.98757065
 C           -4.01740400        0.58097847       -1.47145951
 C           -1.04225030        2.41711022       -1.76232744
 C           -2.37650975        2.16143606       -2.05006626
 C            1.30145589        2.21812826       -2.45563232
 C            1.86925818        1.09041618       -3.18135960
 C           -0.10602167        2.29803235       -2.78549174
 C            0.68303605       -0.83259425       -4.16555792
 C           -0.62316949       -1.43870483       -3.96506916
 C            0.82667775        0.54289219       -4.03956431
 C           -0.35465789        1.37726454       -3.88544139
 C           -2.81600037       -0.93976821       -3.01790894
 C           -3.55621401        0.28824790       -2.81083219
 C           -2.70196459        1.38125094       -3.23257626
 C           -1.75698595       -0.63908110       -3.96620791
 C           -1.61596095        0.81168878       -4.01178831
