   70
C70 / DATE: 7/ 1/2024 / Origin: Program Fullerene / C70 from database
 C            1.24272154       -0.09954844        4.44741937
 C            2.49820620       -0.34083374        3.76366214
 C            2.40375776       -1.63620527        3.10840818
 C            0.39513632       -1.26150470        4.23542171
 C            1.05336581       -2.12637110        3.27885777
 C           -0.93783768       -0.78985211        3.91895005
 C            0.46981066        1.08295440        4.10903318
 C           -0.89808831        0.66481857        3.85862378
 C            1.03182700        2.06714733        3.30966506
 C            2.96198238        0.62056003        2.77878324
 C            2.30749077        1.83599927        2.64059099
 C            2.91358067       -1.49114442        1.76206606
 C            3.33829835       -0.11599613        1.58617347
 C            2.24066706       -2.09693356        0.70846597
 C            0.33831751       -2.52516654        2.15586680
 C            0.99859605       -2.70786363        0.93412256
 C           -1.68220633       -1.46712821        2.95934863
 C           -1.05474087       -2.44633494        2.17914873
 C           -2.79983469       -0.81335452        2.45362445
 C           -1.66979235        1.31610602        2.89417373
 C           -2.78357314        0.63931515        2.39590158
 C            0.18078240        2.80059689        2.39209924
 C           -1.14042778        2.40628741        2.18830880
 C            2.23619226        2.45218763        1.32752002
 C            0.99093176        3.18581883        1.24604644
 C            3.16763652        0.45512460        0.32855478
 C            2.66690611        1.75793086        0.20415010
 C            2.56770819       -1.68748941       -0.58072629
 C            3.08867342       -0.40201429       -0.76860891
 C            2.03263187       -2.39089187       -1.65001985
 C            0.29692104       -3.26197505       -0.14331756
 C            0.82852921       -3.17268298       -1.43189130
 C           -1.77070401       -3.08566915        1.17382628
 C           -1.05160084       -3.58130706        0.01273229
 C           -3.44314400       -1.30526025        1.24927539
 C           -3.02479094       -2.51076050        0.71059457
 C           -3.38626617        1.03842709        1.13653882
 C           -3.64473282       -0.16683247        0.36475101
 C           -1.79903917        2.89714603        1.06271059
 C           -2.91411242        2.16332101        0.48852669
 C            0.37969349        3.32770496        0.00560876
 C           -1.01084009        3.42897414       -0.04028988
 C            2.25256062        2.20473471       -1.05142101
 C            1.08246888        2.97942616       -1.15363848
 C            3.13486550        0.15938081       -2.04000970
 C            2.77824537        1.55830129       -2.16895250
 C            1.92439015       -1.75997175       -2.95281699
 C            2.56756637       -0.55254363       -3.17373921
 C           -0.05623338       -2.94246409       -2.56840371
 C            0.54395863       -1.90333825       -3.38180936
 C           -1.94181031       -3.47546234       -1.13005452
 C           -3.08571557       -2.67905206       -0.72870335
 C           -1.42471290       -2.91633890       -2.36263788
 C           -3.23844857       -0.24422688       -0.96974581
 C           -3.11780764       -1.49399412       -1.56857326
 C           -2.14512227       -1.67943458       -2.63023543
 C           -2.70739007        2.10732431       -0.94624239
 C           -1.71994431        3.11944522       -1.27189799
 C           -2.66035062        0.86824181       -1.58461908
 C            0.44191373        3.14354037       -2.38356855
 C           -0.99732562        2.98668914       -2.44352385
 C            2.18515558        1.74559728       -3.47620150
 C            1.91953460        0.42833761       -4.02875895
 C            0.97138777        2.51929722       -3.57921503
 C           -0.19111045       -0.76255606       -3.69685139
 C           -1.44812876       -0.57335443       -3.10964738
 C           -1.85507892        0.70676852       -2.71740050
 C           -1.24669159        1.82667946       -3.27984315
 C            0.48668537        0.32128968       -4.24681902
 C           -0.07149433        1.65038361       -4.10936746
