   70
C70 / DATE: 7/ 1/2024 / Origin: Program Fullerene / C70 from database
 C            1.63942365        0.01667025        4.33552815
 C            0.81999791       -1.15906095        4.11837808
 C            1.46410487       -1.98020563        3.11055381
 C            2.70690540       -0.00548947        3.35257453
 C            2.58553002       -1.22625679        2.57833867
 C            2.68075309        1.25675200        2.63967092
 C            0.81672021        1.18070763        4.06276579
 C            1.50773698        1.99290474        3.08041851
 C           -0.53992198       -0.72257206        3.86351061
 C           -0.52370627        0.72496148        3.74653810
 C           -1.28735242       -1.44682665        2.94690299
 C            0.64962021       -2.66239068        2.21914634
 C           -0.73085961       -2.61037735        2.41477419
 C            1.13434624       -2.92330096        0.93917748
 C            2.74667219       -1.14633562        1.19873195
 C            2.07044982       -2.05232109        0.37476519
 C            2.97065618        1.25433454        1.28068274
 C            3.24363011        0.03495546        0.65005428
 C            2.51980963        2.32825583        0.51296193
 C            0.75265325        2.64629655        2.11406369
 C            1.39150555        3.03636074        0.93691195
 C           -1.18252968        1.31946720        2.67501268
 C           -0.63580270        2.46954338        2.10767160
 C           -2.27411706       -0.78428253        2.21980131
 C           -2.12181591        0.57858071        1.94987072
 C           -3.13860055       -1.54156313        1.44005556
 C           -1.54017184       -3.44569043        1.65596975
 C           -2.83889219       -2.95033897        1.23747674
 C            0.39528571       -3.75927730        0.11229333
 C           -0.94658365       -4.13787088        0.52649345
 C            0.35241432       -3.48285937       -1.30936084
 C            2.17135820       -1.93271212       -1.01872967
 C            1.22228718       -2.54248683       -1.84622788
 C            3.60396471        0.03550021       -0.68976674
 C            3.03384083       -0.97832221       -1.56026062
 C            2.95326226        2.43797382       -0.80465569
 C            3.60966074        1.29506344       -1.41080994
 C            2.07050928        3.01422198       -1.80441960
 C            0.70487525        3.84897987        0.04012403
 C            0.95403741        3.71486414       -1.38492985
 C           -1.40041989        3.17603126        1.19049676
 C           -0.72523374        4.01545864        0.21791445
 C           -2.73681184        1.14743194        0.82538073
 C           -2.48282072        2.48368087        0.51247811
 C           -3.59556252       -1.00529033        0.17398482
 C           -3.35299535        0.32874986       -0.12719363
 C           -2.99718961       -3.24522243       -0.17772599
 C           -1.83254395       -3.97610208       -0.61531221
 C           -1.04725782       -3.43311464       -1.70324391
 C           -3.32369761       -2.00452784       -0.84793816
 C           -1.50032431       -2.32775070       -2.42480380
 C           -2.63586386       -1.61513570       -1.99815628
 C            0.83435248       -1.90914624       -3.02448632
 C           -0.58461668       -1.72804210       -3.28743067
 C            2.69598382       -0.34199862       -2.82482343
 C            3.00070458        1.07131035       -2.71042693
 C            1.92309130        2.03352251       -2.86477151
 C            1.52618753       -0.71404309       -3.46665611
 C           -0.77926363       -0.36329308       -3.74315496
 C            0.65118833        1.57954395       -3.21288111
 C            0.51538031        0.29677009       -3.74667173
 C           -0.32227262        3.44260701       -2.02112630
 C           -1.35993017        3.80784894       -1.07202669
 C           -2.47922946        2.90573048       -0.88036957
 C           -0.47858269        2.28852801       -2.78837722
 C           -3.29442251        0.68188500       -1.47320979
 C           -2.84519177       -0.30939736       -2.43807181
 C           -1.89341541        0.33590459       -3.32453465
 C           -2.74327026        1.96527505       -1.86252001
 C           -1.74762925        1.71693269       -2.89640026
