   70
C70 / DATE: 7/ 1/2024 / Origin: Program Fullerene / C70 from database
 C            1.20821613        0.02590739        4.31252792
 C            2.43405086       -0.39899367        3.67528888
 C            2.34873352       -1.83471423        3.46073640
 C            0.39362213       -1.15639979        4.53412268
 C            0.99613428       -2.24889594        3.79149339
 C           -0.98318342       -0.80489508        4.25148592
 C            0.37884185        1.00336068        3.63722295
 C           -0.99846075        0.56024346        3.73467418
 C            0.80167159        1.57654019        2.44405429
 C            2.80301033        0.20554627        2.41162881
 C            2.02136632        1.21526622        1.86116378
 C            2.86343148       -2.11389167        2.13434638
 C            3.26937409       -0.85051329        1.53576820
 C            2.20021405       -3.03904323        1.34660365
 C            0.23156584       -2.93418123        2.84417106
 C            0.84164650       -3.43680825        1.69324423
 C           -1.78792764       -1.75618505        3.64680286
 C           -1.15987335       -2.81799792        2.86852727
 C           -2.94717296       -1.29893631        2.90964208
 C           -1.88941250        0.90527316        2.71533817
 C           -2.98194210        0.08143786        2.46171814
 C           -0.14843617        2.20964070        1.65063300
 C           -1.48904334        1.80956540        1.72681043
 C            0.28532110        2.94000295        0.54930902
 C            2.23080682        1.54155087        0.52543438
 C            1.52005031        2.60581928       -0.01786848
 C            3.13725163       -0.67248402        0.15946463
 C            2.82888416        0.60392030       -0.32676387
 C            2.25991636       -2.89195581       -0.09377265
 C            2.89644689       -1.78616472       -0.64963721
 C            0.07394485       -3.52070822        0.45723812
 C            0.97554944       -3.29170803       -0.64467744
 C           -1.90326611       -2.95126418        1.62355484
 C           -3.09085408       -2.14202597        1.73429332
 C           -1.20442336       -2.98987485        0.42049302
 C           -3.55894735        0.07085895        1.13187419
 C           -3.43390748       -1.28724361        0.62633922
 C           -2.35309815        2.08499365        0.65992421
 C           -3.27121874        1.11111142        0.25803536
 C           -0.66946387        3.63780848       -0.18209591
 C           -2.01693611        3.10660974       -0.22701153
 C           -0.35200910        4.14955407       -1.49958223
 C            1.86476776        3.03826923       -1.29266694
 C            0.95082427        3.86335766       -2.05635900
 C            2.85585337        0.83560203       -1.70548007
 C            2.46499618        2.08155528       -2.20218868
 C            2.71631797       -1.58871177       -2.01237468
 C            2.88348092       -0.25882099       -2.56462727
 C            0.52788446       -2.63805254       -1.78210340
 C            1.52337520       -2.15432153       -2.62278352
 C           -1.59060391       -2.17175067       -0.65832352
 C           -2.80876337       -1.47070817       -0.60137296
 C           -0.72936750       -2.00742864       -1.76601205
 C           -3.40198803        0.83463325       -1.09967328
 C           -3.08451970       -0.50737297       -1.55914836
 C           -2.38157173        2.98190722       -1.63081670
 C           -1.35186412        3.63042238       -2.41902991
 C           -2.89989833        1.77863326       -2.07776987
 C            0.74880010        3.21434900       -3.34029698
 C            1.73626395        2.16149954       -3.46453322
 C           -0.65623087        2.86118548       -3.43629168
 C            2.10530323       -0.21759954       -3.78939225
 C            1.16573526       -1.32585364       -3.74600444
 C            1.36046336        0.98617166       -4.09349262
 C           -1.10061267       -1.16238390       -2.82921916
 C           -2.24386173       -0.38816086       -2.72475229
 C           -2.18321706        1.02011072       -3.09515511
 C           -1.01176458        1.52875152       -3.65946608
 C           -0.16647915       -0.77713860       -3.78641937
 C           -0.05379727        0.63172960       -4.13680225
