   70
C70 / DATE: 7/ 1/2024 / Origin: Program Fullerene / C70 from database
 C            1.00691638       -0.06217968        4.88785888
 C            2.33097576       -0.40534701        4.42240032
 C            2.30757263       -1.81361388        4.05871120
 C            0.18823608       -1.26102637        4.78352495
 C            0.91194111       -2.19100691        3.94020461
 C           -1.13318355       -0.84348378        4.37740651
 C            0.28664066        0.99889202        4.21325539
 C           -1.10285417        0.60076162        4.19776832
 C            0.81032732        1.57929092        3.06022230
 C            2.87575108        0.31340891        3.28829650
 C            2.08986400        1.23346057        2.59812237
 C            3.16553555       -1.97198726        2.90443303
 C            3.62996053       -0.64907924        2.51392240
 C            2.61655243       -2.59228479        1.71736857
 C            0.40214681       -2.53364839        2.68261742
 C            1.28324537       -2.99460397        1.69160085
 C           -1.69588683       -1.40385858        3.16765207
 C           -0.93944109       -2.25198137        2.36030973
 C           -1.88759520        0.90708135        3.01522129
 C           -2.44156047       -0.34115352        2.52788249
 C           -0.06250246        2.24507169        2.19528389
 C           -1.38480840        1.80103717        2.07531082
 C            0.48926331        2.99584806        1.16459224
 C            2.43954557        1.54695633        1.28356748
 C            1.80343212        2.62243552        0.67818306
 C            3.56029236       -0.56900722        1.06408008
 C            3.13699544       -1.86620541        0.57296276
 C            3.01006149        0.56060435        0.47372326
 C            2.42248309       -1.92865246       -0.61948020
 C            0.77712632       -3.38740904        0.45964666
 C            1.45381183       -2.91905545       -0.74191777
 C           -1.40396316       -2.48726428        1.06494543
 C           -0.64312037       -3.27876184        0.21521535
 C           -2.68809979       -0.45133736        1.16889429
 C           -2.39923181       -1.65556311        0.53453619
 C           -1.99556933        1.82860045        0.82079472
 C           -2.72641852        0.71035613        0.40084913
 C           -0.32721737        3.34073606        0.01377098
 C           -1.59423159        2.78715900       -0.10876543
 C            1.78177947        2.71368566       -0.77210207
 C            0.54224961        3.37148762       -1.15133951
 C            2.61800506        0.47356263       -0.85958211
 C            2.29857866       -0.77864631       -1.40085669
 C            2.23146955        1.63688313       -1.52553821
 C            1.57501478       -0.84238537       -2.58989898
 C            0.46122822       -2.81901871       -1.79836359
 C           -0.82385516       -3.17734273       -1.22211378
 C            0.52757692       -1.76331923       -2.70419963
 C           -2.79513755       -1.80275351       -0.79141401
 C           -1.96201948       -2.56152591       -1.70989931
 C           -3.17231047        0.62489400       -0.91696733
 C           -3.28673871       -0.63350307       -1.50887612
 C           -2.20750249        2.82495071       -1.35496654
 C           -3.11941583        1.75818543       -1.71966139
 C           -0.00379921        3.11166217       -2.40478061
 C           -1.39556741        3.11981367       -2.52558276
 C            1.84921372        1.56045684       -2.85986477
 C            1.62724638        0.25132895       -3.44273256
 C            0.78406373        2.42953601       -3.33577551
 C            0.62484892        0.39128922       -4.48063211
 C            0.18363206        1.77751834       -4.48818349
 C           -0.61881241       -1.43404395       -3.43598109
 C           -1.87024294       -1.79857665       -2.94255136
 C           -2.93433254       -0.81142668       -2.90937921
 C           -0.55176419       -0.44909783       -4.41645533
 C           -3.07589833        1.61394949       -3.16665322
 C           -2.05006003        2.51256360       -3.67291820
 C           -1.25621446        1.78474843       -4.63985418
 C           -2.84423315        0.29924713       -3.73697081
 C           -1.70999585        0.40268769       -4.64087765
