   70
C70 / DATE: 7/ 1/2024 / Origin: Program Fullerene / C70 from database
 C            1.41456849       -0.10473370        5.55675816
 C            0.51117965       -1.23295289        5.68824672
 C            1.15168729       -2.38235804        5.07377857
 C            2.54269964       -0.52596437        4.74111920
 C            2.37691827       -1.92724165        4.43659083
 C            2.65089634        0.40125592        3.63227280
 C            0.71661081        0.93527555        4.82182782
 C            1.59681772        1.38707842        3.76337755
 C           -0.68807702       -0.93115986        4.92241755
 C           -0.58727120        0.43145420        4.43554945
 C            0.27480238       -2.86432283        4.02259232
 C           -0.87718115       -1.98497094        3.94522535
 C            2.31993349       -2.31962608        3.04023651
 C            1.07344951       -3.02566134        2.82166266
 C            2.91630572       -0.07130869        2.34918542
 C            2.72961261       -1.43314695        2.04658402
 C            2.78628807        0.84830639        1.30807703
 C            1.02024874        1.83961367        2.58418050
 C            1.81493482        1.84968013        1.43717723
 C           -1.02040193        0.69987837        3.14050457
 C           -0.35755520        1.68429345        2.41363940
 C           -1.32031926       -1.63087288        2.67625791
 C           -1.67102016       -0.30448892        2.42386413
 C            0.44727083       -2.82995136        1.59696487
 C           -0.87607819       -2.38744754        1.59910840
 C            2.41696789       -1.77550760        0.72740211
 C            1.23948799       -2.49656865        0.49440855
 C            3.15072114        0.42266719        0.04061059
 C            2.92990509       -0.97120517       -0.27801875
 C            2.76469836        1.20671228       -1.11162766
 C            1.28152237        2.45290371        0.29540478
 C            1.93482530        2.30310841       -0.93425258
 C           -0.89268871        2.05265477        1.18845864
 C           -0.07949904        2.76915404        0.32389003
 C           -2.14150481        0.00422553        1.14404635
 C           -1.92424761        1.28540116        0.64250805
 C           -1.46708913       -2.15472156        0.36993140
 C           -2.29014472       -1.03653136        0.23130059
 C            0.60205105       -2.42948534       -0.75083037
 C           -0.78135429       -2.59323248       -0.75091652
 C            2.36519334       -1.03699900       -1.61149143
 C            2.47366229        0.28314294       -2.19585326
 C            1.20508276       -1.76071106       -1.82602334
 C            1.54965450        0.66900134       -3.15897491
 C            1.37131081        2.86280053       -2.07625577
 C            1.25008767        2.02719689       -3.26266316
 C           -0.67770696        3.35064634       -0.77944202
 C            0.13726916        3.60599038       -1.94418649
 C           -2.37329310        1.59198602       -0.64581200
 C           -1.93375882        2.78129542       -1.23234519
 C           -2.80255900       -0.76130588       -1.03781631
 C           -2.89569576        0.57591108       -1.45523956
 C           -1.46368502       -2.56900003       -1.95160452
 C           -2.67002066       -1.77227084       -1.99081900
 C            0.45119492       -1.49030632       -2.97260767
 C            0.63983467       -0.27112225       -3.65294375
 C           -0.72750649       -2.21194379       -3.13989272
 C           -0.24376427        0.12913569       -4.65970203
 C            0.06972841        2.45847320       -3.99471287
 C           -0.67394777        3.35326733       -3.12138060
 C           -2.00140130        2.95780065       -2.67337722
 C           -0.63931625        1.52617606       -4.73783594
 C           -3.28130216        0.87909129       -2.76622586
 C           -2.70400325        2.03549931       -3.43212431
 C           -2.09000375        1.55854125       -4.66023262
 C           -2.94212891       -1.50512898       -3.38676497
 C           -1.71455299       -1.79934120       -4.11855472
 C           -1.42048774       -0.66492584       -4.95844617
 C           -3.37151149       -0.17900607       -3.75795148
 C           -2.57634399        0.21590255       -4.90823430
