   70
C70 / DATE: 7/ 1/2024 / Origin: Program Fullerene / C70 from database
 C            1.25519129       -0.10612196        4.18902171
 C            2.43844505       -0.25298268        3.35851799
 C            2.39585755       -1.57989841        2.76360638
 C            0.41218788       -1.27173917        3.98065595
 C            1.10742746       -2.17166847        3.09682911
 C           -0.89684570       -0.81426042        3.58745234
 C            0.43193907        1.07821030        4.02820958
 C           -0.88944088        0.64043924        3.60960879
 C            0.98868985        2.19291151        3.42502584
 C            2.86777284        0.82943485        2.59846598
 C            2.32049582        2.08911921        2.84571061
 C            3.56490227        0.59087538        1.41499193
 C            2.92564631       -1.79337109        1.49028617
 C            3.54598762       -0.73762585        0.82140982
 C            2.43053629       -2.85971431        0.74009343
 C            0.40523830       -2.82583235        2.09457627
 C            1.18499706       -3.48280450        1.15566520
 C           -1.56562147       -1.45250986        2.54807230
 C           -0.89078186       -2.39059033        1.74425218
 C           -2.66657892       -0.78343293        2.03142706
 C           -1.57253124        1.32196239        2.60202135
 C           -2.65061828        0.67269937        2.02078603
 C            0.18099069        2.95448750        2.49100237
 C           -0.92897751        2.34924975        1.90281820
 C            2.42608102        3.13130641        1.84171949
 C            1.09948044        3.70723821        1.66959031
 C            3.52845954        1.55887893        0.32686410
 C            2.94441266        2.79820398        0.52830212
 C            3.33902586       -0.58011851       -0.61311407
 C            3.24766155        0.83776094       -0.90296347
 C            2.37200658       -2.73695364       -0.70632049
 C            2.50853871       -1.47723726       -1.27344158
 C            0.56557185       -4.05529062       -0.01207857
 C            1.33300875       -3.62462637       -1.17324270
 C           -1.49631550       -2.85318312        0.55757796
 C           -0.81984918       -3.74576370       -0.27468752
 C           -3.26537059       -1.22686578        0.79492220
 C           -2.65249748       -2.23630967        0.06398911
 C           -3.12904910        1.10663944        0.72740433
 C           -3.76677574       -0.04206190        0.11221023
 C           -1.23875437        2.59473685        0.54826922
 C           -2.33396487        1.94546666       -0.04508325
 C            0.83430987        3.79120293        0.25640893
 C            2.00353538        3.30260896       -0.45424125
 C           -0.41450881        3.42613910       -0.22997739
 C            2.25189337        1.29197246       -1.75923063
 C            1.78871193        2.61141438       -1.64328184
 C            1.52624623       -0.99026025       -2.14995996
 C            1.54632611        0.35768416       -2.52812342
 C            0.38887958       -3.13286822       -2.14943030
 C           -0.91981330       -3.57654958       -1.71082258
 C            0.51996158       -1.83880396       -2.64709865
 C           -3.00396289       -2.39949727       -1.27675851
 C           -2.02629058       -2.92258159       -2.21439814
 C           -3.91097789       -0.06834985       -1.26378496
 C           -3.71175996       -1.32733059       -1.95789538
 C           -2.50928655        1.96206439       -1.43447887
 C           -3.28668170        0.97880513       -2.05520599
 C           -0.52075454        3.37323018       -1.61349998
 C            0.66543557        2.99183972       -2.36691756
 C           -1.65790433        2.72387764       -2.22330913
 C            0.67886624        0.80172220       -3.51901034
 C            0.24128465        2.17863192       -3.48296602
 C           -1.20961960        2.18269760       -3.49443139
 C           -0.56396429       -1.29799202       -3.34428734
 C           -1.82118935       -1.89336257       -3.21853269
 C           -3.00145373       -1.05055614       -3.19604736
 C           -2.82406495        0.38210141       -3.30271483
 C           -0.47142538       -0.01080453       -3.86493850
 C           -1.64837227        0.85430638       -3.86548991
