   70
C70 / DATE: 7/ 1/2024 / Origin: Program Fullerene / C70 from database
 C            1.46821167        0.01019605        4.77613261
 C            0.68254022       -1.18675538        4.54359324
 C            1.35471499       -1.98029626        3.52760444
 C            2.64427239       -0.06790520        3.93119349
 C            2.65025746       -1.36736445        3.28444743
 C            2.67382463        1.11664656        3.09149625
 C            0.67744562        1.14231284        4.32660941
 C            1.42282781        1.82645025        3.28612306
 C           -0.68181542       -0.77012674        4.28970075
 C           -0.65395803        0.65855922        4.01093128
 C           -1.45388213       -1.57435369        3.47092103
 C            0.59921095       -2.47311979        2.46031676
 C           -0.78188112       -2.54548518        2.61596609
 C            1.15260626       -2.52327554        1.17475440
 C            3.20167738       -1.45387451        2.01866557
 C            2.49910825       -2.20590721        0.99532390
 C            3.16235209        0.99698337        1.79670533
 C            3.67370897       -0.23520563        1.38285222
 C            2.71255218        1.89163653        0.82702083
 C            0.73723856        2.27369543        2.16287850
 C            1.44297237        2.47251989        0.97351703
 C           -1.27725275        1.13579253        2.85849400
 C           -0.65124113        2.14048558        2.11781192
 C           -2.46501232       -0.94635488        2.64730617
 C           -2.30272498        0.38555937        2.27180756
 C           -1.62657641       -2.74819767        1.45471868
 C           -2.80775275       -1.92187620        1.63604985
 C            0.32756104       -2.64772896        0.04640668
 C           -1.05416435       -2.82492425        0.19120166
 C            0.86990368       -2.42370696       -1.22447999
 C            2.94087314       -1.68969975       -0.29065776
 C            3.77145805       -0.52239498       -0.03801266
 C            2.03585226       -1.67483203       -1.34402900
 C            3.30926433        1.83199289       -0.42673479
 C            3.72255577        0.53485458       -0.93032052
 C            2.72521455        2.56039524       -1.53011612
 C            0.78481481        3.05367091       -0.11965476
 C            1.40674703        3.12837308       -1.35984564
 C           -1.34045613        2.72215148        1.06648322
 C           -0.59303554        3.23138038       -0.06937946
 C           -2.90824170        0.83839238        1.09448216
 C           -2.53217775        2.06661832        0.56179571
 C           -3.47925166       -1.48639825        0.50990283
 C           -3.62412720       -0.05424258        0.29636972
 C           -1.88802744       -2.69270932       -0.92068733
 C           -3.12737144       -2.06853096       -0.77098798
 C            0.08290706       -2.60048246       -2.35410992
 C           -1.34089058       -2.81303336       -2.19122372
 C            0.27058230       -1.68766452       -3.46739044
 C            2.12061099       -0.68699582       -2.33186675
 C            3.04454904        0.34466278       -2.19819425
 C            2.67661844        1.65883109       -2.67080596
 C            1.09814968       -0.57962127       -3.28175206
 C            0.63896998        2.81909334       -2.55611544
 C            1.38441815        1.81457232       -3.30068807
 C            0.70066862        0.68982332       -3.74381200
 C           -1.38625049        3.00636604       -1.26950471
 C           -2.58450964        2.27779645       -0.87748875
 C           -0.74972437        2.69866306       -2.47238003
 C           -3.70188416        0.16499121       -1.14272940
 C           -3.59158537       -1.13918864       -1.78527999
 C           -3.08149160        1.27910064       -1.70748706
 C           -2.01526297       -2.19299938       -3.32146832
 C           -1.00544975       -1.54582678       -4.14259639
 C           -3.07443805       -1.23149763       -3.06821195
 C           -0.61648045        0.90318625       -4.13385051
 C           -1.40090154        1.87845591       -3.39482618
 C           -2.65373566        1.23546275       -3.03063555
 C           -1.47344825       -0.21671818       -4.45641383
 C           -2.74223763       -0.01037760       -3.77584650
