   70
C70 / DATE: 7/ 1/2024 / Origin: Program Fullerene / C70 from database
 C            1.46535317        0.09503796        4.79022862
 C            0.67657222       -1.10821233        4.60768005
 C            1.51042512       -2.08128348        3.94065988
 C            2.67769409       -0.05047593        3.99994797
 C            2.73308110       -1.41150178        3.52253932
 C            2.69760649        1.02039161        3.02494366
 C            0.70906475        1.20532341        4.23677628
 C            1.55559660        1.87598252        3.27947603
 C           -0.57213970       -0.72946387        3.97481620
 C           -0.56691074        0.70713000        3.76737343
 C           -1.09942648       -1.51783557        2.96296940
 C            0.96964232       -2.75932230        2.77999783
 C           -0.36437935       -2.59218881        2.43693584
 C            2.88779232       -1.63861675        2.09833746
 C            1.94476799       -2.67132611        1.71555490
 C            3.01980941        0.75825245        1.69220019
 C            3.07786714       -0.56863769        1.22657982
 C            2.77123831        1.78058705        0.77041106
 C            0.96268241        2.45955164        2.17394402
 C            1.78383638        2.72132042        1.08617670
 C           -1.07223916        1.20585019        2.56413398
 C           -0.40350735        2.25943802        1.93249728
 C           -2.07890414       -0.94230446        2.16071626
 C           -1.93789510        0.40508493        1.81151939
 C           -2.79185183       -1.79316369        1.33265976
 C           -0.76586139       -3.09862592        1.20546066
 C           -2.11918891       -3.00737960        0.92046054
 C            1.48031726       -2.68302865        0.40438839
 C            0.16174520       -3.08614289        0.14923403
 C            2.91678073       -0.81596552       -0.13747693
 C            2.15096732       -1.91499205       -0.54678942
 C            3.13003100        1.57179849       -0.55729268
 C            3.20233407        0.20688485       -1.03543940
 C            2.54117970        2.38352499       -1.60890357
 C            1.27703920        3.56676606        0.11148878
 C            1.74136810        3.45858130       -1.25958907
 C           -0.94816438        2.81089746        0.77115468
 C           -0.16164849        3.73123730        0.07260145
 C           -2.34728857        0.84796546        0.54782752
 C           -1.97344106        2.12080227        0.10915386
 C           -3.45919336       -1.25624038        0.16723988
 C           -3.10788877        0.01296055       -0.28570633
 C           -2.58851726       -3.35277001       -0.39857608
 C           -3.57144941       -2.35229989       -0.78023428
 C           -0.27568374       -3.18102788       -1.18182230
 C           -1.61587487       -3.44113913       -1.46388916
 C            1.80022996       -2.06159618       -1.88285153
 C            0.54645296       -2.71649945       -2.20931169
 C            2.65310487        0.17357771       -2.38074352
 C            2.09918014        1.48489920       -2.66528873
 C            1.96933721       -0.95026119       -2.80342789
 C            0.80667568        1.60550436       -3.18057658
 C            0.62841514        3.81111501       -2.12450344
 C           -0.51015620        4.12689774       -1.27437572
 C            0.17724098        2.84657760       -3.11186152
 C           -2.44210644        2.56648818       -1.12458255
 C           -1.68420339        3.54626645       -1.87949205
 C           -1.26574438        2.90532521       -3.11726440
 C           -3.25857609        0.32240962       -1.64462316
 C           -2.89934546        1.58710692       -2.08602546
 C           -1.99670407        1.66611657       -3.22430495
 C           -3.37936071       -2.07404362       -2.18523581
 C           -2.22247100       -2.83335820       -2.63567162
 C           -3.17714185       -0.70023720       -2.58755862
 C           -0.03831300       -2.00411219       -3.33862699
 C            0.72002399       -0.78229109       -3.52311300
 C            0.06970851        0.45322346       -3.49936370
 C           -1.33087008        0.50701281       -3.60933699
 C           -1.41399779       -1.96217777       -3.47197023
 C           -2.07471732       -0.66936818       -3.53225575
