   70
C70 / DATE: 7/ 1/2024 / Origin: Program Fullerene / C70 from database
 C            1.22151796       -0.03470495        4.22538796
 C            2.50223363       -0.36716030        3.64658734
 C            2.46975756       -1.77126511        3.27421011
 C            0.39376298       -1.23042254        4.19842476
 C            1.11158281       -2.25223867        3.47076734
 C           -0.91853678       -0.84811925        3.72646737
 C            0.45426057        1.04184420        3.63239821
 C           -0.91518137        0.58999965        3.49667515
 C            0.99256451        1.80605399        2.60729565
 C            2.95419829        0.38320396        2.49248350
 C            2.25107779        1.50457656        2.06281825
 C            3.07116847       -1.89815495        1.95707304
 C            3.39302505       -0.56034676        1.48570573
 C            2.52513500       -2.81022736        1.06907444
 C            0.47587814       -2.90781850        2.42065381
 C            1.26724130       -3.45202793        1.41063099
 C           -1.58120111       -1.66063618        2.81490845
 C           -0.89677402       -2.72083908        2.19881789
 C           -2.70370563       -1.11687894        2.20000176
 C           -1.70251977        1.10443141        2.46466651
 C           -2.76321705        0.32449411        2.01314982
 C            0.11629995        2.58516349        1.86248035
 C           -1.18467767        2.10958970        1.63373367
 C            0.67434656        3.52634870        1.01082326
 C            2.56615268        2.01590169        0.80209026
 C            1.95848491        3.20907159        0.41968155
 C            3.19019490       -0.21852051        0.15136374
 C            3.06193383        1.13544743       -0.16963119
 C            2.46148148       -2.47286975       -0.34098921
 C            2.71457457       -1.17331599       -0.75519472
 C            0.65581361       -3.88357746        0.16987255
 C            1.32723627       -3.17544485       -0.91437852
 C           -1.52335805       -3.44952227        1.18443136
 C           -0.71858081       -4.04077221        0.12535732
 C           -3.27972385       -1.75134823        1.02997838
 C           -2.74905114       -2.94903513        0.58228232
 C           -3.34246626        0.58031227        0.71022080
 C           -3.61842661       -0.70203562        0.07584124
 C           -1.87413383        2.46898929        0.46329979
 C           -2.85464236        1.62364005       -0.06026884
 C           -0.15051492        4.14590914        0.00005959
 C           -1.42080377        3.53194108       -0.31536092
 C            1.91742347        3.59952261       -0.97798320
 C            0.62885436        4.22832959       -1.22488730
 C            3.02739697        1.48410780       -1.51733095
 C            2.45915900        2.75421531       -1.93355986
 C            2.17793486       -0.74826925       -1.96626722
 C            2.60687550        0.47272695       -2.46812949
 C            0.57205428       -2.55629925       -1.91247314
 C            0.97863660       -1.31650181       -2.42082841
 C           -1.39478003       -3.80374555       -1.13403792
 C           -2.67984722       -3.19164167       -0.84434255
 C           -0.72981814       -2.99301060       -2.14065240
 C           -3.36006359       -0.86549057       -1.28791802
 C           -2.85294143       -2.07639628       -1.75662304
 C           -1.70880509       -2.05783422       -2.65654803
 C           -3.05195395        1.56649430       -1.43600980
 C           -3.17416501        0.26798282       -2.07555407
 C           -1.51555743        3.44155254       -1.76278827
 C           -0.20535032        3.75077797       -2.31545351
 C           -2.27489216        2.42181192       -2.31755461
 C            1.74560321        2.53448106       -3.18184473
 C            1.83973297        1.12052382       -3.50777649
 C            0.34915335        2.92519739       -3.28814664
 C            0.08863609       -0.56547648       -3.20548520
 C           -1.27909657       -0.83755895       -3.15633208
 C           -2.17999683        0.22268026       -3.13381572
 C           -1.70777178        1.57888496       -3.36076433
 C            0.50637602        0.63143626       -3.78147421
 C           -0.39520494        1.77186327       -3.76930965
