   70
C70 / DATE: 7/ 1/2024 / Origin: Program Fullerene / C70 from database
 C            1.18965559       -0.06321652        5.09615307
 C            0.40349351       -1.24653589        4.79120614
 C            1.23165818       -2.14730495        4.02717236
 C            2.43700561       -0.16253979        4.35887678
 C            2.50769461       -1.48398697        3.78705261
 C            2.50916207        0.96980211        3.46169465
 C            0.46477592        1.09345897        4.59181983
 C            1.30255832        1.76596319        3.63538166
 C           -0.83836023       -0.80470881        4.19998257
 C           -0.82654446        0.64848372        4.14124018
 C           -1.37275536       -1.48417391        3.10888347
 C            0.73711783       -2.62484026        2.74602404
 C           -0.52580492       -2.24579785        2.28568041
 C            2.79583824       -1.60316883        2.37196306
 C            1.85092165       -2.55842306        1.82739636
 C            3.00262091        0.81215772        2.16734767
 C            3.10904313       -0.47396706        1.60485179
 C            2.81454252        1.89774978        1.32246607
 C            0.72598928        2.32592825        2.49843662
 C            1.61731489        2.70269496        1.50617972
 C           -1.40119613        1.24427607        3.02241530
 C           -0.59553954        1.98922613        2.13770677
 C           -2.47481425       -0.87855870        2.53025732
 C           -2.50232731        0.57713010        2.51179723
 C           -2.93143175       -1.32273422        1.23617257
 C           -0.78304323       -2.33308303        0.90571914
 C           -2.04521264       -2.00185733        0.40697428
 C            1.58781268       -2.47715825        0.47565246
 C            0.27278313       -2.57293949        0.01928393
 C            3.07759155       -0.62558986        0.20940558
 C            2.50221733       -1.79453352       -0.30707151
 C            3.03457608        1.75162610       -0.09775373
 C            3.25631448        0.49024205       -0.62021766
 C            1.12520213        3.07146169        0.20300882
 C            2.10694738        2.63959151       -0.77936837
 C           -1.05018192        2.24897214        0.82319544
 C           -0.22029540        2.92270636       -0.08526269
 C           -3.05892390        0.97866137        1.24474249
 C           -3.68141383       -0.20924145        0.69289686
 C           -2.31338606        1.79375685        0.40367808
 C           -3.95726958       -0.22519472       -0.65562014
 C           -2.27348408       -1.97142159       -0.97347611
 C           -3.43036637       -1.32840629       -1.43024913
 C            0.05241022       -2.52866847       -1.36068349
 C           -1.22326139       -2.25169759       -1.85933243
 C            2.42896175       -1.99381622       -1.67292006
 C            1.16126959       -2.45236330       -2.21370379
 C            3.15743042        0.34765750       -2.00010271
 C            2.94528066       -0.97118923       -2.55133919
 C            1.67739318        2.31493218       -2.06360591
 C            2.32179173        1.28276913       -2.74483319
 C           -0.58833625        3.02247228       -1.42063900
 C            0.39212896        2.69195620       -2.44776790
 C           -2.67513256        1.84206226       -0.94782818
 C           -3.65036949        0.96409506       -1.42508650
 C           -1.87536925        2.52635161       -1.85291252
 C           -3.54684193       -0.91616312       -2.81359043
 C           -3.61852716        0.53962533       -2.81553382
 C           -1.38110477       -2.05474742       -3.23496828
 C           -2.51770173       -1.31240539       -3.73999602
 C            1.02387004       -1.88128600       -3.54338178
 C            2.03858167       -0.85277917       -3.67836411
 C            1.61146692        0.53192537       -3.77100708
 C           -0.24605883       -1.60677175       -4.01460376
 C           -0.29589147        1.96427510       -3.50277801
 C           -1.72173246        2.03031862       -3.21467912
 C           -2.56730929        1.03489960       -3.68306180
 C           -1.99828400       -0.10744831       -4.37192042
 C            0.26890754        0.79961496       -4.02093942
 C           -0.55405814       -0.24812597       -4.43811708
