   70
C70 / DATE: 7/ 1/2024 / Origin: Program Fullerene / C70 from database
 C            1.43439293       -0.05166655        4.88862947
 C            0.64741497       -1.21993427        4.55372479
 C            1.35202763       -1.96838155        3.52498489
 C            2.64513282       -0.09952158        4.09278478
 C            2.54685884       -1.22236793        3.17527271
 C            2.83046644        1.21667675        3.52608123
 C            0.67989555        1.11539521        4.46011196
 C            1.53388331        1.88582495        3.58538521
 C           -0.69522417       -0.76400976        4.25595435
 C           -0.59136631        0.65368979        3.94560142
 C           -1.45669838       -1.55580481        3.41471209
 C            0.59901537       -2.54314058        2.51062235
 C           -0.78344118       -2.61617051        2.68304303
 C            1.12000833       -2.58080789        1.21693756
 C            2.85645411       -1.01164152        1.83126683
 C            2.11508352       -1.66998901        0.84130853
 C            3.54372012        1.30256718        2.34296330
 C            3.60735574        0.11527457        1.49396221
 C            3.25164204        2.42357562        1.47554334
 C            1.00367662        2.42704815        2.41452648
 C            1.90465195        2.96155031        1.50052571
 C           -1.02977386        1.10336306        2.70013338
 C           -0.26490059        2.02344147        1.96602568
 C           -2.32701204       -0.90713501        2.45451650
 C           -2.05709200        0.40307945        2.06375426
 C           -1.62670741       -2.94724788        1.54867277
 C           -2.62304610       -1.89314557        1.43105305
 C            0.40817682       -3.26490048        0.23856888
 C           -1.02849215       -3.42765810        0.39618905
 C            0.67417303       -2.99965993       -1.16117712
 C            2.28149109       -1.32273926       -0.51016555
 C            1.60464053       -2.03129211       -1.51270933
 C            3.64537241        0.56199356        0.11503806
 C            3.52960281        2.00589649        0.11715494
 C            2.93248529       -0.13395054       -0.84840860
 C            1.49680838        3.16393654        0.12616806
 C            2.52001420        2.60108870       -0.73599061
 C           -0.72016910        2.42754282        0.70503409
 C            0.17422038        2.95825157       -0.23164510
 C           -2.51633195        0.83467340        0.82129840
 C           -1.97178789        1.99331894        0.26499608
 C           -2.98167564       -1.43790332        0.17008112
 C           -3.20507625       -0.07162567        0.00736266
 C           -1.64763651       -3.13645219       -0.88311996
 C           -0.59256867       -3.06223188       -1.87714199
 C           -2.69398024       -2.22395623       -0.95004301
 C           -0.77910314       -2.26346932       -3.00265768
 C            1.55630775       -1.51583711       -2.80871315
 C            0.34048934       -1.68195519       -3.59495601
 C            2.51891187        0.55920135       -1.98183499
 C            2.08943156        1.88312343       -1.84372564
 C            2.06920517       -0.18146326       -3.06275782
 C           -0.10880049        2.81015900       -1.58824856
 C            0.87251049        2.25157579       -2.41601693
 C           -2.42827186        2.43406961       -0.97540934
 C           -1.44302216        2.80052994       -1.97393362
 C           -3.80540048        0.37184264       -1.16225564
 C           -3.48430363        1.69828114       -1.64415274
 C           -3.05781101       -1.75747399       -2.20758765
 C           -2.05578715       -1.75205153       -3.26506774
 C           -3.81591790       -0.52329296       -2.30226384
 C           -1.83418256        2.19993455       -3.23770975
 C           -3.14016768        1.59294800       -3.05369927
 C           -2.21860293       -0.51807963       -4.02485410
 C           -3.33735897        0.21425278       -3.45875006
 C            0.18527215       -0.50315359       -4.42834762
 C            1.19683410        0.45893131       -4.03006676
 C            0.52281646        1.67964352       -3.63523029
 C           -1.09384575        0.17694122       -4.44802793
 C           -0.87488796        1.55048793       -4.00332082
