   70
C70 / DATE: 7/ 1/2024 / Origin: Program Fullerene / C70 from database
 C            1.74449714       -0.18805387        5.27933441
 C            0.91334550       -1.36770743        5.42361905
 C            1.32746013       -2.31687664        4.41018591
 C            2.60334599       -0.38166117        4.11970723
 C            2.33670888       -1.68850138        3.56885046
 C            2.43588170        0.75789572        3.25284879
 C            0.86892458        0.93223286        4.98945022
 C            1.40031632        1.60534678        3.81958160
 C           -0.45961856       -0.99121030        5.12323049
 C           -0.49930370        0.44683519        4.94187606
 C            0.12580350       -2.80881560        3.76728302
 C           -0.92992683       -1.84425656        4.04184078
 C            0.25393805       -3.26692116        2.47339401
 C            2.21486011       -1.83392787        2.18596041
 C            1.46101578       -2.90958315        1.74140948
 C            2.42846533        0.56914209        1.87592452
 C            2.37203875       -0.72230496        1.33489060
 C            1.95077239        1.61474274        1.10724153
 C            0.51615283        2.21070099        2.93550833
 C            0.95656563        2.44117631        1.63862504
 C           -1.33872714        0.96378810        3.96560769
 C           -0.85495149        2.04796925        3.12917299
 C           -1.63711843       -1.27157210        2.97637327
 C           -2.05144505        0.05152144        3.07943158
 C           -0.83615566       -3.02707483        1.55653969
 C           -1.61852041       -1.89135151        1.72106571
 C            1.13589731       -3.00689268        0.34079669
 C           -0.28238837       -3.29129324        0.25705938
 C            2.14013940       -0.86246681       -0.05305603
 C            1.64894538       -2.07559685       -0.55445365
 C            2.09428560        1.54519727       -0.27063944
 C            2.10122235        0.28351929       -0.87416770
 C            1.69488585        2.65593763       -0.99831860
 C            0.08072521        3.05308406        0.75551279
 C            0.60768365        3.45704893       -0.46070035
 C           -1.72970650        2.08786927        1.96835192
 C           -2.37935952        0.79283139        1.87402727
 C           -1.25537692        2.65063052        0.79469428
 C           -2.06409289       -1.21037397        0.57355950
 C           -2.38565641        0.14711626        0.64007567
 C           -0.92567044       -2.79488630       -0.84964198
 C           -1.89302412       -1.79974725       -0.68627082
 C            1.09921543       -2.09716719       -1.83588690
 C           -0.14923561       -2.71268100       -1.98424430
 C            1.80561620        0.15606234       -2.24670095
 C            1.47172213       -1.11123046       -2.74479765
 C            1.50667329        2.54603227       -2.42535526
 C            1.61662806        1.30553637       -3.04032541
 C           -0.31378331        3.71570861       -1.54446981
 C            0.37080460        3.37959004       -2.77324968
 C           -1.86093200        2.25605819       -0.39595488
 C           -2.29398646        0.92942986       -0.51776158
 C           -1.56933711        2.99554544       -1.53111772
 C           -2.27604861       -1.09304170       -1.83545215
 C           -2.32968882        0.30922655       -1.77444870
 C           -0.84076419       -2.53808926       -3.16100978
 C           -2.03277563       -1.71722858       -3.06258740
 C            1.06409335       -1.27025471       -4.07016140
 C           -0.09857174       -2.10018540       -4.31570583
 C            1.06438581        1.19169182       -4.31784170
 C            0.94955756       -0.11187569       -4.92504901
 C           -0.61566131        2.82156699       -3.66901782
 C           -1.74086535        2.39943019       -2.83811295
 C           -2.20427074        1.08925667       -2.94129344
 C           -0.15910876        1.93141352       -4.62283708
 C           -2.13344424       -0.95708447       -4.28669340
 C           -1.02775326       -1.36238890       -5.14535266
 C           -0.34341905       -0.16746951       -5.59340355
 C           -2.12090949        0.48212422       -4.19460188
 C           -1.11097564        0.96651335       -5.12234894
