   70
C70 / DATE: 7/ 1/2024 / Origin: Program Fullerene / C70 from database
 C            1.44583745        0.04230905        4.54334585
 C            0.68147152       -1.13953474        4.20880577
 C            1.51905010       -1.98477742        3.38072511
 C            2.62967632        0.04745326        3.69819931
 C            2.60559563       -1.14988344        2.89007729
 C            2.66975736        1.31774667        3.02003592
 C            0.64437443        1.19537423        4.17772451
 C            1.50192700        2.07983408        3.43462784
 C           -0.58842073       -0.71551690        3.65385380
 C           -0.55475498        0.72955905        3.51859069
 C           -1.09423758       -1.46555656        2.60718151
 C            0.88787334       -2.81226943        2.46436033
 C           -0.49867141       -2.69657855        2.33433760
 C            1.62046057       -3.17528163        1.34003669
 C            2.80276251       -1.05415657        1.51034216
 C            2.51379899       -2.18795798        0.75828704
 C            3.00675490        1.35759531        1.66837176
 C            2.78157143        0.20850762        0.89118981
 C            2.87716823        2.60371528        1.06785566
 C            0.93869644        2.88927730        2.46613622
 C            1.86898198        3.48392209        1.63383788
 C           -0.90243442        1.30405736        2.29667104
 C           -0.29276334        2.50298708        1.89722025
 C           -1.80662401       -0.82616444        1.59160959
 C           -1.60134566        0.53694160        1.35880351
 C           -2.43060386       -1.61797431        0.62836290
 C           -1.15480542       -3.53857443        1.45208875
 C           -2.30921641       -3.00695728        0.75506548
 C            0.94345660       -3.85784325        0.25686442
 C           -0.36716450       -4.26024631        0.46367233
 C            2.14328053       -2.04560049       -0.63523245
 C            1.27671957       -3.15661335       -0.97824172
 C            2.27561385        0.33564185       -0.41944156
 C            1.84908657       -0.78488906       -1.12341616
 C            2.71673015        2.68736356       -0.36613518
 C            2.20149054        1.58214802       -1.03709679
 C            1.39218408        4.33850233        0.58480736
 C            2.15416176        4.00040332       -0.60504889
 C           -0.71273395        3.10985245        0.70497889
 C            0.00070438        4.21882530        0.22804602
 C           -1.95401183        1.09796557        0.13142064
 C           -1.60275230        2.42725757       -0.14252021
 C           -2.86144964       -1.04595393       -0.57745913
 C           -2.61842699        0.31752760       -0.83500297
 C           -3.31277519       -1.87136217       -1.61779711
 C           -2.50946988       -3.86990308       -0.38620776
 C           -1.21269919       -4.45192485       -0.69605114
 C           -3.01650417       -3.28842787       -1.60230681
 C            0.29178763       -2.97873302       -1.94553697
 C           -0.79005801       -3.86622640       -1.95131490
 C           -2.01431354       -3.51435560       -2.63618022
 C            0.94201417       -0.64037558       -2.17397309
 C            0.20366737       -1.74958391       -2.61929206
 C            1.39046767        1.74704177       -2.17406816
 C            0.70749639        0.63764850       -2.71236896
 C            1.26157900        4.16975236       -1.72203724
 C           -0.03525021        4.55567528       -1.17610886
 C            1.01690642        3.03492982       -2.58354041
 C           -1.92010445        2.95854682       -1.38900716
 C           -1.03941862        3.93498418       -1.99823770
 C           -0.32903779        3.23683907       -3.05684933
 C           -2.74009948        0.79216598       -2.15425626
 C           -0.42788480        0.85998662       -3.51396452
 C           -2.23942683        2.04604909       -2.45677808
 C           -1.09653387        2.06292960       -3.35409558
 C           -3.05364002       -1.46769494       -2.97653815
 C           -2.01299614       -2.34830934       -3.48268704
 C           -0.80511320       -1.55020765       -3.55499751
 C           -2.58881473       -0.12641624       -3.18136518
 C           -1.26854775       -0.20546594       -3.78237862
