   70
C70 / DATE: 7/ 1/2024 / Origin: Program Fullerene / C70 from database
 C            1.45854964       -0.05672369        4.73049602
 C            0.67722416       -1.25405572        4.50242493
 C            1.31890932       -2.03079741        3.45301655
 C            2.62723917       -0.13361514        3.87908813
 C            2.50212925       -1.30729873        3.02875410
 C            2.75952379        1.15178963        3.23029820
 C            0.66470366        1.07268531        4.27166659
 C            1.44681314        1.78007965        3.28018323
 C           -0.69120239       -0.83448612        4.28655921
 C           -0.63565928        0.56554509        3.88950049
 C           -1.49782598       -1.68110521        3.54789582
 C            0.50691864       -2.62263248        2.49463671
 C           -0.85485699       -2.73456485        2.77735328
 C            0.92756389       -2.64425164        1.16304525
 C            2.77459587       -1.16343857        1.66915394
 C            1.92530400       -1.76114352        0.72806506
 C            3.42620254        1.17577731        2.02134791
 C            3.55639018       -0.07742098        1.28746226
 C            3.00757349        2.15090200        1.04127032
 C            0.84582692        2.16750285        2.08158389
 C            1.67300274        2.55153576        1.02468309
 C           -1.17826340        0.93697696        2.65989693
 C           -0.48758166        1.82146436        1.81785392
 C           -2.47083464       -1.09121964        2.65533381
 C           -2.23600157        0.18613565        2.14690240
 C           -1.77945365       -3.11287209        1.72137151
 C           -2.87160119       -2.14864534        1.74681324
 C            0.14879250       -3.31916912        0.22929307
 C           -1.26429007       -3.53279632        0.50359796
 C            0.28491329       -3.00250725       -1.17769992
 C            2.02092062       -1.41563176       -0.63425065
 C            1.14467896       -1.98390222       -1.56930503
 C            3.66524415        0.26722837       -0.11516940
 C            3.61669042        1.72133211       -0.19590092
 C            2.97333615       -0.48122783       -1.06040362
 C            3.16855537        2.29842944       -1.36862906
 C            1.10522824        2.93437528       -0.18921141
 C            1.92561698        3.05042390       -1.31709163
 C           -1.05179164        2.17177561        0.58774203
 C           -0.27853047        2.87092491       -0.34859667
 C           -2.79916469        0.53926345        0.92406749
 C           -2.29271131        1.63257445        0.22427565
 C           -3.49657706       -1.78750434        0.56485220
 C           -3.62583822       -0.37424715        0.26689345
 C           -2.00353652       -3.26386380       -0.71862670
 C           -1.03271059       -3.09749649       -1.78650419
 C           -3.13311550       -2.45189997       -0.67674539
 C           -1.33243075       -2.28331371       -2.86959666
 C            0.96039719       -1.38640874       -2.81930887
 C           -0.28157264       -1.46361815       -3.44247037
 C            2.89967821        0.03028403       -2.35322934
 C            3.10004161        1.45659706       -2.54535212
 C            1.81846721       -0.37761012       -3.22571038
 C            1.34031834        3.00501725       -2.64780218
 C            2.02327446        1.95656139       -3.38119933
 C            1.25294255        0.81690924       -3.84041229
 C           -0.82903974        3.25356588       -1.56905945
 C           -0.03486573        3.10356932       -2.77342862
 C           -2.88294139        1.97909673       -0.98830309
 C           -2.17667629        2.84693122       -1.90280016
 C           -3.82920176       -0.25943244       -1.16503536
 C           -3.39326768       -1.51527459       -1.76126742
 C           -2.55823320       -1.49773857       -2.87266449
 C           -3.51733196        0.94230160       -1.78234972
 C           -0.88509821       -0.24370224       -3.95374009
 C           -0.13212382        0.93059028       -3.94200648
 C           -0.73839448        2.14803237       -3.61757900
 C           -2.12831003        2.17887565       -3.19752091
 C           -2.28392443       -0.23779538       -3.54841987
 C           -2.86260773        0.93435722       -3.07998785
