   70
C70 / DATE: 7/ 1/2024 / Origin: Program Fullerene / C70 from database
 C            1.04077035       -0.04799579        4.89998498
 C            2.34693100       -0.32587036        4.35050790
 C            2.33064086       -1.70727948        3.89543227
 C            0.24218653       -1.25466271        4.73677718
 C            0.93719830       -2.08069662        3.77100776
 C           -1.10722287       -0.83392530        4.44025566
 C            0.26825869        1.03921418        4.33464546
 C           -1.11036979        0.62087427        4.41411152
 C            0.69255397        1.66537589        3.16231750
 C            2.81093699        0.47170111        3.23398111
 C            1.93827224        1.35001008        2.59521358
 C            3.16451943       -1.77406786        2.71858504
 C            3.60043983       -0.41752479        2.41250009
 C            2.59723406       -2.31059691        1.49881383
 C            0.39052126       -2.26209635        2.49530525
 C            1.23149644       -2.57775535        1.41441418
 C           -1.71355818       -1.27385092        3.20075763
 C           -0.96175283       -1.96862130        2.25897472
 C           -1.99695701        1.02695906        3.34568400
 C           -2.53931403       -0.17970174        2.73947576
 C           -0.24361229        2.37734459        2.40190837
 C           -1.60852638        2.05529564        2.49476244
 C            0.22216400        3.13760076        1.33077573
 C            2.20897762        1.72603401        1.27611704
 C            1.49518021        2.78172208        0.73057302
 C            3.53300697       -0.26308204        0.97057970
 C            3.20451448       -1.56511048        0.42245675
 C            2.89433009        0.85021069        0.42461807
 C            2.57910905       -1.58917469       -0.80822486
 C            0.68073212       -2.72271898        0.13735135
 C            1.47042899       -2.41541518       -0.98014046
 C           -1.44844379       -2.03226485        0.95820185
 C           -0.70331482       -2.71794561        0.00769049
 C           -2.88823035       -0.12743573        1.39384063
 C           -2.44282817       -1.13687313        0.53767272
 C           -2.43789883        2.27097987        1.39973687
 C           -3.14964891        1.12641908        0.85380479
 C           -0.67945141        3.52839822        0.26043043
 C           -1.99440225        3.09220948        0.29163095
 C            1.35215280        2.87140086       -0.71035888
 C            0.06668042        3.48568898       -0.98762885
 C            2.54952771        0.79227699       -0.93221838
 C            2.64956157       -0.44171758       -1.58031253
 C            1.79396002        1.82028979       -1.50804078
 C            2.26874909       -0.55697077       -2.90474868
 C            0.91518588       -2.49758374       -2.26097350
 C            1.49199645       -1.72617283       -3.27720149
 C           -1.26296552       -2.94031255       -1.24195930
 C           -0.38593606       -2.98297139       -2.39495568
 C           -2.75549785       -1.06519569       -0.82033776
 C           -2.42229192       -2.15307742       -1.61743277
 C           -3.21338281        1.28492836       -0.58699778
 C           -2.61245995        2.56692479       -0.91556057
 C           -2.97258359        0.18763001       -1.40895598
 C           -0.58425306        3.16528613       -2.17030853
 C           -1.96692763        2.70659571       -2.13414603
 C            1.26938976        1.66736700       -2.79607943
 C            1.67576328        0.58461019       -3.56766797
 C            0.11324426        2.35973731       -3.15902907
 C            0.74195127       -1.37610874       -4.47094648
 C            0.79620054        0.07171901       -4.60894113
 C           -1.19601877       -2.63733471       -3.55313598
 C           -2.40726997       -2.00253321       -3.05820210
 C           -0.64034123       -1.78607685       -4.58449796
 C           -2.62496485        0.41192182       -2.74649663
 C           -2.09989122        1.64835603       -3.12117765
 C           -0.90797148        1.69014610       -3.94915127
 C           -0.56634013        0.56593228       -4.68760254
 C           -2.46360300       -0.66621157       -3.61044914
 C           -1.45653560       -0.58422719       -4.65701650
