   70
C70 / DATE: 7/ 1/2024 / Origin: Program Fullerene / C70 from database
 C            1.61357644        0.02876344        4.27491937
 C            0.79051865       -1.15455191        4.10851422
 C            1.45136748       -2.03172224        3.16165363
 C            2.67697972       -0.03322528        3.28944795
 C            2.61149824       -1.32857091        2.64116763
 C            2.59168996        1.15184029        2.45659701
 C            0.79268728        1.18180948        3.96030097
 C            1.45105462        1.92945180        2.90411461
 C           -0.56278175       -0.72720622        3.80856662
 C           -0.56376024        0.72248710        3.72105599
 C           -1.28184074       -1.44643642        2.86425508
 C            0.66334469       -2.74552930        2.26655224
 C           -0.72670705       -2.62091656        2.34727672
 C            1.23866873       -3.17037897        1.06800216
 C            2.85794245       -1.39667674        1.27610832
 C            2.34740047       -2.48404411        0.56435417
 C            2.80046141        1.01338813        1.08968606
 C            3.20144630       -0.22611399        0.59013240
 C            2.23952207        1.95217304        0.21847701
 C            0.65188401        2.53269298        1.94282833
 C            1.17381445        2.74763269        0.66689336
 C           -1.28080299        1.33079720        2.69700243
 C           -0.73140380        2.46028874        2.09312631
 C           -2.29260411       -0.79662226        2.15430585
 C           -2.23884376        0.59202651        1.99616282
 C           -3.09559078       -1.53843995        1.29446446
 C           -1.52300725       -3.45464846        1.57082752
 C           -2.77685844       -2.93641909        1.06008021
 C            0.50433834       -3.99842194        0.22121866
 C           -0.90300378       -4.21756334        0.50346481
 C            0.61844666       -3.82146121       -1.21581790
 C            2.70578282       -2.64883021       -0.77074414
 C            1.72191965       -3.15654294       -1.71148532
 C            3.57411755       -0.30994789       -0.74267363
 C            3.41008367       -1.57242726       -1.44054683
 C            2.56620556        1.90206865       -1.14309202
 C            3.17073826        0.74971591       -1.64889636
 C            1.84991037        2.68502175       -2.04666159
 C            0.42311485        3.50040843       -0.23770782
 C            0.85313323        3.61319240       -1.55617920
 C           -1.52268917        3.18646585        1.21950111
 C           -0.87791847        3.86886517        0.11231257
 C           -2.88873680        1.18516948        0.90771854
 C           -2.71968913        2.55257105        0.69626332
 C           -3.45527164       -0.96206960        0.01442422
 C           -3.25015177        0.39064140       -0.18099932
 C           -2.79495973       -3.15594573       -0.37903289
 C           -1.63806412       -3.94388574       -0.72358232
 C           -0.69063155       -3.40550074       -1.67853507
 C           -2.96481873       -1.86382157       -1.00801273
 C           -0.84973899       -2.10895863       -2.18084658
 C           -2.02058849       -1.38158421       -1.91887160
 C            1.50478444       -2.10437055       -2.68594648
 C            2.70699523       -1.30515379       -2.68556539
 C            2.56571551        0.12195132       -2.81206553
 C            0.26377109       -1.46498778       -2.73519059
 C            1.28423541        2.02600145       -3.21512968
 C            1.36522498        0.64416401       -3.26231302
 C            0.18744537       -0.10983124       -3.09033186
 C           -0.11371606        3.79327440       -2.62961331
 C            0.03041480        2.66310940       -3.52950151
 C           -1.89130104        4.04794744       -0.91280181
 C           -2.94696910        3.08915134       -0.63829189
 C           -1.51910958        3.90189731       -2.30403147
 C           -2.89031827        0.80686387       -1.45724968
 C           -2.06216312       -0.02073134       -2.22449159
 C           -1.05008639        0.53985983       -3.00492473
 C           -1.16822908        1.86449501       -3.42408547
 C           -2.98785101        2.15858443       -1.74927417
 C           -2.18002785        2.70876681       -2.81728316
