   70
C70 / DATE: 7/ 1/2024 / Origin: Program Fullerene / C70 from database
 C            1.60461823       -0.03060332        4.64629535
 C            0.77420572       -1.20413057        4.48376209
 C            1.34115695       -2.00800698        3.41654915
 C            2.62072160       -0.06591059        3.60761985
 C            2.36631065       -1.20969051        2.76520874
 C            2.63194318        1.22918538        2.98320731
 C            0.76470919        1.12707898        4.39194629
 C            1.48138166        1.97083970        3.47592346
 C           -0.59669427       -0.75486238        4.33507276
 C           -0.53699426        0.65453065        3.98028137
 C           -1.45269126       -1.57028380        3.62021517
 C            0.46699812       -2.72386287        2.61362774
 C           -0.88968661       -2.72870152        2.94654045
 C            0.82133717       -2.94265454        1.28719323
 C            2.30160029       -1.03535037        1.38193773
 C            1.62425499       -1.99526293        0.63130546
 C            2.89019240        1.32175613        1.62080947
 C            2.61590882        0.20889371        0.80094493
 C            2.69481810        2.58872467        1.09174376
 C            0.76761268        2.68598427        2.52934155
 C            1.56982821        3.34719343        1.61706636
 C           -1.05166263        1.07888683        2.74944713
 C           -0.45215863        2.15057501        2.06592360
 C           -2.33984745       -0.95605965        2.65579630
 C           -1.98649981        0.27236611        2.09297137
 C           -1.86360238       -3.13647773        1.94476672
 C           -2.80387940       -2.03132461        1.79625403
 C            0.01848970       -3.80081990        0.54836095
 C           -1.40898966       -3.80543831        0.81582267
 C            0.20481362       -3.88853276       -0.88034656
 C            1.59352848       -1.87712454       -0.75800752
 C            1.02716012       -2.88793730       -1.52619547
 C            2.41082711        0.39541345       -0.58142270
 C            1.85693406       -0.64211349       -1.35000692
 C            2.71002154        2.77046046       -0.33586214
 C            2.63542124        1.65496515       -1.16006249
 C            0.94344046        4.03032957        0.51765688
 C            1.83486450        3.89308428       -0.61501440
 C           -0.90421952        2.47135928        0.77325699
 C           -0.35526371        3.55890070        0.10283931
 C           -2.34528240        0.54849927        0.77100942
 C           -1.68717056        1.55632762        0.06598343
 C           -3.29034799       -1.70666892        0.54089506
 C           -3.18403249       -0.32892779        0.09410285
 C           -2.08673527       -3.61040450       -0.45393539
 C           -1.11200863       -3.84957568       -1.49993847
 C           -2.99143507       -2.56502204       -0.59609854
 C            0.35943598       -2.53461723       -2.75907083
 C           -1.03505417       -2.93073679       -2.61823268
 C            1.52459209       -0.43937784       -2.69820665
 C            0.62735476       -1.30563757       -3.33728277
 C            2.30317870        1.87305783       -2.49635784
 C            1.85041453        0.76532543       -3.31127192
 C            1.01150091        3.81399434       -1.79547128
 C           -0.36037745        3.57800798       -1.34660127
 C            1.48801540        3.03868774       -2.83751715
 C           -1.81993630        1.65239191       -1.33540096
 C           -1.14115600        2.65958033       -2.04314724
 C           -3.17305218       -0.34448674       -1.35015536
 C           -2.94606380       -1.71892377       -1.78067801
 C           -2.02755218       -1.96778720       -2.80453479
 C           -2.54293955        0.67683617       -2.04289663
 C           -0.37854906       -0.77051919       -4.13423168
 C           -1.74999839       -0.93265360       -3.69231585
 C           -2.21213628        0.40397427       -3.36311338
 C            0.95061276        1.31642237       -4.30941276
 C            0.52652114        2.61420056       -3.82624120
 C           -0.85128582        2.47767915       -3.39654529
 C           -0.25347607        0.58218813       -4.63003556
 C           -1.38394580        1.33278667       -4.09606725
