   70
C70 / DATE: 7/ 1/2024 / Origin: Program Fullerene / C70 from database
 C            1.12449505        0.05771389        4.57042023
 C            2.46212680       -0.19135031        4.07999238
 C            2.52649602       -1.59833953        3.72670008
 C            0.34250406       -1.15131296        4.34822859
 C            1.15794452       -2.05757396        3.57274062
 C           -0.93613996       -0.74679762        3.81070815
 C            0.37554272        1.15605008        3.99549058
 C           -0.99481155        0.70555515        3.85129028
 C            0.92857107        1.90529359        2.96320518
 C            2.92247337        0.55579435        2.92323916
 C            2.03124980        1.40064208        2.26298867
 C            3.41727013       -1.70700752        2.59366159
 C            3.73385704       -0.35565989        2.14784785
 C            2.95862768       -2.43403004        1.42930310
 C            0.71653800       -2.46825664        2.31318394
 C            1.66008024       -2.93737215        1.39051927
 C           -1.44355114       -1.39074798        2.69218352
 C           -0.59337937       -2.16893338        1.88995359
 C           -2.57460888       -0.82331868        2.12579265
 C           -1.81622577        1.36551243        2.93781584
 C           -2.76782623        0.61423139        2.25047392
 C            0.08527931        2.80161846        2.32849642
 C           -1.35076325        2.55360409        2.37423349
 C            0.40438539        3.23843391        0.98753953
 C            2.10357795        1.54527623        0.86588229
 C            1.28771484        2.48162049        0.22516015
 C            3.61165997       -0.33720875        0.70429285
 C            3.44165586       -1.70922500        0.27134638
 C            2.83585959        0.63803962        0.09085019
 C            2.80835787       -1.93514351       -0.94197078
 C            1.22343755       -3.43353922        0.17098008
 C            1.93812365       -3.02080883       -1.02664099
 C           -1.03432575       -2.61201612        0.63433047
 C           -0.18900200       -3.39626020       -0.14357878
 C           -2.99242478       -1.22014852        0.80037579
 C           -2.21353393       -2.10631203        0.07448531
 C           -3.32145590        1.09903481        0.99523109
 C           -3.54596210       -0.05134747        0.13300973
 C           -1.91752598        3.04774255        1.12778952
 C           -0.83706340        3.69873259        0.39705285
 C           -2.86259554        2.28711080        0.43945634
 C           -0.91806179        3.79592739       -0.98019752
 C            1.12862817        2.43690497       -1.16421987
 C            0.16708035        3.24764341       -1.77586575
 C            2.46984844        0.43348439       -1.23714964
 C            2.59604399       -0.85059438       -1.79015879
 C            1.74961563        1.42704148       -1.90198434
 C            2.08256236       -1.11420662       -3.05387645
 C            1.01331754       -3.11125715       -2.14559644
 C           -0.30874492       -3.36988815       -1.59313236
 C            1.15813160       -2.22376278       -3.20570401
 C           -2.42167369       -2.17340258       -1.30051041
 C           -1.42383582       -2.77612886       -2.16451529
 C           -3.39797680        0.08255857       -1.24609633
 C           -2.97859721       -1.01875665       -1.98940164
 C           -3.04660554        2.49890773       -0.92379272
 C           -2.16036994        3.41284318       -1.62113408
 C           -3.28810274        1.35779846       -1.79648367
 C           -0.39306363        2.86107118       -3.06146306
 C           -1.83531626        2.83149956       -2.91099589
 C           -2.51678803        1.55327893       -3.01651344
 C            1.44769662        1.27943271       -3.25337404
 C            1.60334524       -0.02073971       -3.86939736
 C            0.20964887        1.83255522       -3.76428296
 C           -0.02089424       -1.71724970       -3.88874844
 C           -1.27815721       -1.92809597       -3.33871500
 C           -2.21174007       -0.81623530       -3.20940186
 C           -1.83885311        0.47553814       -3.57864229
 C            0.30912583       -0.40650387       -4.41442229
 C           -0.60289655        0.70104023       -4.18828521
