   70
C70 / DATE: 7/ 1/2024 / Origin: Program Fullerene / C70 from database
 C            1.29925289        0.01694933        4.26708350
 C            2.53221856       -0.27253019        3.57908116
 C            2.51021581       -1.68151535        3.22918926
 C            0.46387291       -1.17770897        4.20639556
 C            1.13841224       -2.13652860        3.36648399
 C           -0.86413581       -0.74589877        3.83688067
 C            0.48384755        1.11693464        3.79711395
 C           -0.88107404        0.69180266        4.02080197
 C            0.79208194        1.76548400        2.59573907
 C            2.83884222        0.46273636        2.37134545
 C            1.96288490        1.44161308        1.89226789
 C            3.15085203       -1.82304261        1.93513584
 C            3.40353341       -0.48443026        1.42653938
 C            2.64469898       -2.77091694        1.06365986
 C            0.49502554       -2.64812919        2.24268040
 C            1.29276032       -3.26759360        1.28634564
 C           -1.47550237       -1.27495743        2.70190399
 C           -0.77606735       -2.17483112        1.87430186
 C           -2.60817180       -0.61659245        2.21501320
 C           -1.88332454        1.40669106        3.40133547
 C           -2.90016634        0.66822570        2.67551697
 C           -0.22209146        2.49699770        1.96162970
 C           -1.49625028        2.50414496        2.53565335
 C           -0.04003981        2.96088205        0.64893665
 C            2.09070287        1.83399968        0.56062857
 C            1.20325771        2.77267121        0.03384946
 C            3.24102519       -0.21747705        0.07268074
 C            2.90548449        1.07808046       -0.29190092
 C            2.78239227       -2.54799288       -0.36162217
 C            3.01389685       -1.25874932       -0.83756648
 C            0.73609797       -3.60634485       -0.00560400
 C            1.77263875       -3.36547786       -1.00079227
 C           -1.35078490       -2.59929811        0.66492727
 C           -0.57987024       -3.26761198       -0.29316075
 C           -3.24086691       -1.08738662        1.07131294
 C           -2.62504682       -2.15942135        0.31565619
 C           -3.80640699       -0.14320265        0.11300094
 C           -3.52423882        1.62041480        1.77558422
 C           -2.64660064        2.77969479        1.70584656
 C           -3.83167489        1.20599050        0.41957193
 C           -1.14395560        3.38985705       -0.11478974
 C           -2.42306168        3.08042645        0.31600837
 C           -3.19535774        2.14747925       -0.48746534
 C           -1.00530343        3.50687656       -1.48922899
 C            1.44109887        3.29997977       -1.23368733
 C            0.31111356        3.67757345       -2.04997546
 C            3.01253256        1.41360144       -1.62898185
 C            2.37832477        2.62427330       -2.10712198
 C            2.69104788       -0.95455258       -2.16856627
 C            2.78621320        0.36745337       -2.60699796
 C            1.39939814       -3.06339027       -2.29946856
 C            1.87819096       -1.82743782       -2.89975143
 C           -0.99501634       -3.28952136       -1.62465671
 C            0.00672789       -3.22766160       -2.67453242
 C           -2.94244362       -1.93192500       -1.08459401
 C           -3.35732672       -0.54732438       -1.20243603
 C           -2.09959230       -2.45010283       -2.04771846
 C           -2.64378286        1.70841901       -1.69483580
 C           -1.73489503        2.56021766       -2.32063584
 C           -2.59866316        0.33586613       -1.97259903
 C            0.36615865        2.89419378       -3.27283870
 C            1.67921756        2.29703963       -3.34061919
 C            1.77431923        0.86442148       -3.52274583
 C           -0.79578471        2.02287235       -3.28504996
 C            0.79752270       -1.27326707       -3.70336964
 C           -0.35542190       -2.13428244       -3.56262588
 C           -1.58541859       -1.55508793       -3.06942820
 C           -1.64310093       -0.17978528       -2.85858578
 C            0.62389531        0.10445837       -3.70577727
 C           -0.62831805        0.64365471       -3.36037174
