   70
C70 / DATE: 7/ 1/2024 / Origin: Program Fullerene / C70 from database
 C            1.32199999       -0.22893559        5.44103119
 C            0.46527240       -1.39525799        5.31691852
 C            1.09681736       -2.31685228        4.38990618
 C            2.49303320       -0.44725685        4.61030382
 C            2.38680949       -1.76450395        4.01490302
 C            2.63199970        0.70003864        3.73148233
 C            0.60601668        0.91201726        4.89398992
 C            1.46058991        1.54752758        3.91680170
 C           -0.78048202       -0.96476027        4.71180531
 C           -0.69432035        0.46264704        4.45568397
 C            0.13660762       -2.62663077        3.33896579
 C           -1.05717903       -1.83759831        3.58044866
 C            0.58909010       -2.75330833        2.02900013
 C            2.80799255       -1.92573299        2.70486186
 C            1.95571299       -2.65275086        1.77971979
 C            3.11529959        0.51543863        2.43670095
 C            3.34068810       -0.78163846        1.97167993
 C            2.87703723        1.52917458        1.51488999
 C            0.88475097        2.12212641        2.78751776
 C            1.74345631        2.41242221        1.74049140
 C           -1.17535967        0.91288444        3.23400503
 C           -0.46631966        1.87811293        2.50083741
 C           -1.70511233       -1.28449110        2.48242791
 C           -2.03178177        0.06615172        2.54385657
 C           -0.30361310       -2.52770022        0.97642776
 C           -1.50162559       -1.85368425        1.22284645
 C            0.15890521       -2.61937765       -0.33358977
 C            2.39930795       -2.29727453        0.45025263
 C            3.18972335       -1.08417395        0.55242377
 C            1.50919092       -2.38361764       -0.59952040
 C            2.93976741        1.25332365        0.08803415
 C            2.95348161       -0.06005622       -0.36657217
 C            1.20225404        2.77951064        0.45122585
 C            2.07340824        2.21403462       -0.56132271
 C           -1.01096289        2.30050261        1.27559760
 C           -0.17305311        2.74346123        0.23962267
 C           -2.75252020        0.60563408        1.50111530
 C           -2.29899374        1.87350922        0.96550939
 C           -2.24723182       -1.35874671        0.14546495
 C           -3.04640914       -0.24457440        0.36607987
 C           -0.74311443       -2.46244393       -1.38345408
 C           -1.88683871       -1.68200905       -1.16794573
 C           -0.21452503       -2.55178804       -2.66692494
 C            1.82403639       -1.66967091       -1.74277481
 C            2.31298968       -0.37224052       -1.57687724
 C            1.10176057       -1.98164997       -2.87870473
 C            1.50543746        1.89343116       -1.77706110
 C            1.78582805        0.66071320       -2.36711037
 C           -0.62734434        2.74053830       -1.09116141
 C            0.31866758        2.52473129       -2.10709475
 C           -2.76995926        1.94048666       -0.39952427
 C           -3.33910762        0.64325768       -0.73350632
 C           -1.99394654        2.56997848       -1.35852812
 C           -2.50735740       -1.01919513       -2.24722465
 C           -3.18209107        0.19326197       -2.03345208
 C           -1.03297395       -2.19195109       -3.80153893
 C           -2.23781272       -1.43616818       -3.55405921
 C            0.96364715       -0.98706152       -3.91751207
 C            1.16268108        0.35389570       -3.58544985
 C           -0.20002990       -1.39509687       -4.68933949
 C           -0.07436727        2.46694051       -3.43273126
 C            0.41514549        1.35128587       -4.22504892
 C           -2.41604456        2.41491447       -2.67663181
 C           -3.12507981        1.18809513       -3.00606774
 C           -1.47015923        2.65153882       -3.74019205
 C           -2.35714334       -0.49582309       -4.65727584
 C           -1.04499632       -0.38338621       -5.28151292
 C           -0.62843974        0.99792764       -5.17698505
 C           -2.82293542        0.84349341       -4.37789429
 C           -1.81017528        1.77440002       -4.84824047
