   70
C70 / DATE: 7/ 1/2024 / Origin: Program Fullerene / C70 from database
 C            1.26347073       -0.06173827        4.09716271
 C            2.44586935       -0.27048338        3.28088836
 C            2.38967042       -1.62927919        2.76328147
 C            0.41868707       -1.23846907        3.97134538
 C            1.07729137       -2.16987110        3.08590629
 C           -0.91413979       -0.79890977        3.63118081
 C            0.44274990        1.10867129        3.85730994
 C           -0.90671296        0.65439372        3.56375793
 C            0.97336887        2.15601955        3.12565589
 C            2.90509459        0.75347981        2.45554310
 C            2.26558439        1.99569208        2.46794530
 C            3.72356477        0.42336025        1.37768263
 C            2.95672148       -1.90755277        1.52170050
 C            3.81241616       -0.96587889        0.95347899
 C            2.37967616       -2.89636383        0.72075988
 C            0.34316031       -2.79264767        2.08466660
 C            1.05162926       -3.39355541        1.04857885
 C           -1.64286927       -1.49748322        2.67625175
 C           -1.02276879       -2.50913826        1.92425667
 C           -2.77265107       -0.86076035        2.17087780
 C           -1.66494180        1.28058031        2.57220232
 C           -2.76662880        0.59082483        2.07850101
 C            0.10864301        2.87930676        2.21383876
 C           -1.09783002        2.30724452        1.80861827
 C            2.23389254        2.79460032        1.25179411
 C            0.96850979        3.51033322        1.22958490
 C            3.70054302        1.25112569        0.18048012
 C            2.74761502        2.25589460        0.07574392
 C            4.04431247       -0.97486976       -0.47983024
 C            3.94617127        0.39377934       -0.95881049
 C            2.47107467       -2.81923304       -0.73279295
 C            3.20504158       -1.80414962       -1.32057399
 C            0.38327771       -3.72594632       -0.19637910
 C            1.16498296       -3.14752305       -1.27336422
 C           -1.72388599       -3.11879290        0.88239374
 C           -0.99599387       -3.64555511       -0.26022412
 C           -3.45088438       -1.38396047        1.00117360
 C           -2.94837749       -2.51616403        0.37881391
 C           -3.32440279        0.95355048        0.79097081
 C           -3.88988332       -0.24908505        0.20335863
 C           -1.62370165        2.63600365        0.55158416
 C           -2.64314755        1.85924931       -0.01363760
 C            0.42404531        3.86901704        0.01042315
 C           -0.98517838        3.60992068       -0.21350684
 C            2.05808183        2.44368234       -1.12851036
 C            1.11564597        3.46780361       -1.20111656
 C            2.99965499        0.41958734       -2.05304811
 C            2.55983193       -0.94224418       -2.29685646
 C            2.05160264        1.43413260       -2.10334891
 C            0.54562719       -2.28358746       -2.17464742
 C            1.22679670       -1.15229705       -2.64158743
 C           -1.61093509       -3.09947208       -1.45776102
 C           -2.91772138       -2.58884586       -1.07393097
 C           -0.83252162       -2.39502289       -2.37968954
 C           -3.94830429       -0.35668130       -1.17726847
 C           -3.49612113       -1.57808895       -1.83019888
 C           -2.85160494        1.84381276       -1.40133908
 C           -3.51758440        0.76831424       -1.98874460
 C           -1.18120145        3.62428078       -1.64541226
 C            0.12702173        3.45343417       -2.26378407
 C           -2.06986296        2.64454072       -2.23006894
 C            0.90951487        1.22580208       -2.87820337
 C            0.50123013       -0.08174714       -3.16210081
 C            0.04859600        2.28911856       -3.12126939
 C           -1.35967612        2.02506394       -3.33829799
 C           -1.45833083       -1.53395609       -3.27687731
 C           -2.85875317       -1.20133594       -3.07861117
 C           -3.00164037        0.23420456       -3.23649182
 C           -0.76808470       -0.32211112       -3.67882266
 C           -1.74432779        0.75597543       -3.74060512
