   70
C70 / DATE: 7/ 1/2024 / Origin: Program Fullerene / C70 from database
 C            1.36087749        0.16420761        5.02391038
 C            0.58294410       -1.06151113        5.04958097
 C            1.36726293       -2.10465572        4.41502996
 C            2.56536258       -0.09480448        4.25620675
 C            2.59427921       -1.50155648        3.92558870
 C            2.60408143        0.85754282        3.16572076
 C            0.58792359        1.16586437        4.30677109
 C            1.39077121        1.65001720        3.20428652
 C           -0.72948720       -0.76302490        4.51070256
 C           -0.70730051        0.60094486        4.00291019
 C           -1.37524579       -1.73033289        3.75410334
 C            0.77231253       -2.85715089        3.32094899
 C           -0.59745309       -2.80024529        3.12916102
 C            2.73915315       -1.86763217        2.53116709
 C            1.64237857       -2.74040612        2.16209734
 C            3.04600012        0.45231088        1.91457788
 C            3.12817757       -0.91445829        1.60382520
 C            2.80239547        1.32559811        0.85970615
 C            0.77001923        1.93177152        1.98821502
 C            1.57092315        1.99274876        0.84465439
 C           -1.27172965        0.85787994        2.75617377
 C           -0.59777206        1.67466848        1.83706273
 C           -2.33960228       -1.29331212        2.76440221
 C           -2.29162139        0.02194208        2.30145950
 C           -1.11648176       -2.97403744        1.78482719
 C           -2.42831343       -2.36353322        1.79224874
 C            1.09636677       -2.61068969        0.87779515
 C           -0.28173189       -2.76308067        0.68375543
 C            3.00277675       -1.26537563        0.26630512
 C            1.86116007       -1.98863513       -0.11385412
 C            3.41397664        1.01852443       -0.34487091
 C            3.57001161       -0.39018549       -0.64272323
 C            2.96501325        1.67133638       -1.55253014
 C            0.97988442        2.33068457       -0.37633388
 C            1.76448718        2.37254120       -1.53433048
 C           -1.19830531        1.92584115        0.60398728
 C           -0.41690658        2.36278495       -0.47164597
 C           -2.91146744        0.31438535        1.08978282
 C           -2.47989958        1.42793178        0.36817544
 C           -3.00990082       -2.06826775        0.57879458
 C           -3.52812046       -0.72999155        0.40297097
 C           -0.86195912       -2.40576448       -0.54219238
 C           -2.24846741       -2.33728701       -0.62642235
 C            1.30559881       -1.79609431       -1.38499618
 C           -0.08148114       -1.81230207       -1.54080153
 C            3.30285253       -0.58069937       -2.04802803
 C            3.20150046        0.73867865       -2.63684989
 C            2.10706303       -1.30783241       -2.40799014
 C            2.20824138        0.66756375       -3.68087844
 C            1.49675752       -0.59859286       -3.51386104
 C            1.16515266        2.66521822       -2.75748269
 C            1.45061433        1.80399015       -3.90467927
 C           -1.03336085        2.72695779       -1.67191099
 C           -0.24784821        2.98922222       -2.79396686
 C           -3.11986219        1.74318904       -0.82740605
 C           -2.40671533        2.52691097       -1.82125300
 C           -3.75871774       -0.59027467       -1.01510438
 C           -2.85742615       -1.53628599       -1.66735606
 C           -3.83953706        0.68927982       -1.53205008
 C           -0.68618302       -1.18830423       -2.65552886
 C            0.11171656       -0.61043729       -3.66090368
 C           -2.08714944       -1.08938920       -2.73339109
 C            0.21180288        1.62999025       -4.62573457
 C           -0.72367168        2.60990021       -4.11419339
 C           -0.43780693        0.33828025       -4.52545419
 C           -2.94412852        2.14414747       -3.11650547
 C           -3.55758016        0.84477320       -2.94197476
 C           -2.66972359       -0.12494859       -3.55433434
 C           -2.04013425        2.02476817       -4.23944468
 C           -1.85674714        0.59870295       -4.49992209
