   70
C70 / DATE: 7/ 1/2024 / Origin: Program Fullerene / C70 from database
 C            1.39450698        0.04551589        4.57636638
 C            0.60287091       -1.16714156        4.47637434
 C            1.42185155       -2.17852095        3.84185711
 C            2.58618895       -0.14057704        3.76866126
 C            2.60823118       -1.51449572        3.31162752
 C            2.61813012        0.90906826        2.77192362
 C            0.62615906        1.12411556        3.98251577
 C            1.41632177        1.71155126        2.92053849
 C           -0.67033099       -0.82628456        3.86642821
 C           -0.68221409        0.60903310        3.64042748
 C           -1.20131216       -1.66076455        2.88191346
 C            0.78887121       -3.13447919        3.06189873
 C           -0.56784640       -2.87778701        2.59142889
 C            1.52991262       -3.72581211        1.96305616
 C            3.00941161       -1.77641428        2.00254247
 C            2.66343481       -2.99910653        1.42720815
 C            3.02997011        0.59604751        1.48476456
 C            3.40619377       -0.71990338        1.17400624
 C            2.66483400        1.46482735        0.45815616
 C            0.76043113        2.13005325        1.76594462
 C            1.48522456        2.20666829        0.57627349
 C           -1.28892723        1.07666996        2.48514232
 C           -0.63118047        2.02207563        1.69668264
 C           -2.08759721       -1.11763283        1.94259453
 C           -2.24422400        0.27293443        1.88078932
 C           -2.39787488       -1.87677264        0.81463816
 C           -0.67965459       -3.42753783        1.24877992
 C            0.60646290       -3.95958094        0.86446905
 C           -1.41700867       -2.71643600        0.31931493
 C            2.59146752       -3.11772081       -0.01944116
 C            1.21941020       -3.45890886       -0.34981976
 C            3.81167176       -1.01670042       -0.12636806
 C            3.23213430       -2.17095746       -0.79238750
 C            3.26893412        1.32493351       -0.77857981
 C            3.87007058        0.04890273       -1.10966448
 C            2.56717024        1.77970309       -1.95573452
 C            0.85357505        2.72220665       -0.56144621
 C            1.46846098        2.61603413       -1.82048841
 C           -1.27505169        2.47495595        0.54847158
 C           -0.51032388        3.03636847       -0.47622314
 C           -3.00848714        0.82373159        0.85570988
 C           -2.56943844        2.01975139        0.27624033
 C           -3.32029584       -1.38393588       -0.08795944
 C           -3.80897374       -0.04305120        0.11902875
 C           -2.97058215       -1.46284702       -1.49206477
 C           -0.87878473       -2.43348904       -0.94396179
 C            0.48316482       -2.61115888       -1.18062915
 C           -1.62845456       -1.64504084       -1.81635111
 C            2.54926612       -1.67094275       -1.97054466
 C            3.21484344       -0.43958553       -2.31388288
 C            2.40816887        0.63221688       -2.83163606
 C            1.15377011       -1.72960112       -2.03142515
 C           -0.97079775       -0.70592959       -2.62863489
 C            1.12488550        0.35683850       -3.28165011
 C            0.43482773       -0.73183676       -2.71666857
 C            0.66806880        2.71001876       -2.95205731
 C            0.40551851        1.47389338       -3.67456032
 C           -1.15449016        3.61990675       -1.56455528
 C           -0.57061248        3.44498426       -2.87284604
 C           -3.28787468        2.59092576       -0.77310929
 C           -2.58802558        3.44100747       -1.71793906
 C           -4.36256386        0.38206931       -1.15011547
 C           -3.74984889       -0.45661644       -2.17464535
 C           -4.18649185        1.75944795       -1.55062281
 C           -1.70003276        0.30625785       -3.28285728
 C           -1.02078713        1.37750957       -3.85253675
 C           -1.53729726        2.72720189       -3.68243799
 C           -2.82744336        2.90362124       -3.05374587
 C           -3.08015071        0.42031261       -3.10275213
 C           -3.66943652        1.73620952       -2.90543196
