   70
C70 / DATE: 7/ 1/2024 / Origin: Program Fullerene / C70 from database
 C            1.27394982        0.01366678        4.37267226
 C            2.53374129       -0.18138494        3.68984536
 C            2.61052526       -1.58363558        3.34227055
 C            0.45618631       -1.17232103        4.15359723
 C            1.27160519       -2.13824432        3.45952144
 C           -0.77863493       -0.74408917        3.53244610
 C            0.47269691        1.15091904        3.98923005
 C           -0.88356512        0.67848672        3.77801469
 C            0.97966261        2.06485128        3.07137938
 C            2.78936736        0.58394331        2.48037748
 C            1.91907620        1.61579432        2.13311135
 C            3.26711646       -1.67946521        2.05141083
 C            3.21998725       -0.35201849        1.45339205
 C            2.92956196       -2.75997993        1.25586966
 C            0.75761920       -2.80268379        2.35364795
 C            1.69593079       -3.46265367        1.57261053
 C           -1.10474015       -1.22754219        2.27133645
 C           -0.42483325       -2.33428136        1.74395144
 C           -1.89381428       -0.43565712        1.43585657
 C           -1.68772477        1.44924264        2.95165225
 C           -2.32425112        0.82871469        1.86892339
 C            0.10367127        3.07249053        2.69566493
 C           -1.31322969        2.78487914        2.82663822
 C            0.27056949        3.71284028        1.40800840
 C            1.73653094        1.91992878        0.77981458
 C            1.02265456        3.06943901        0.43210234
 C            2.73557819       -0.20049068        0.15379517
 C            2.10380851        0.98835179       -0.20437971
 C            2.91134986       -2.57847128       -0.17947533
 C            2.65130481       -1.30952753       -0.69661080
 C            1.26178883       -4.12572611        0.37111732
 C            2.16465822       -3.70428295       -0.69007032
 C           -0.81623482       -2.83982981        0.49453616
 C           -0.08087113       -3.86914114       -0.09577278
 C           -2.22303050       -0.89467034        0.15676085
 C           -1.74219476       -2.13288547       -0.28374423
 C           -2.81643877       -0.02936528       -0.76678831
 C           -3.13353749        1.59518153        1.03079433
 C           -3.28577689        1.20474145       -0.35494487
 C           -2.02198645        3.64478830        1.90521228
 C           -1.02402937        4.27343389        1.05229238
 C           -3.02292687        3.04474755        1.05334183
 C           -2.96813062        2.35254907       -1.18405236
 C           -1.48058239        4.16600774       -0.32004547
 C           -2.76563484        3.49076806       -0.30543014
 C            0.75926153        3.34274214       -0.90615777
 C           -0.56329209        3.81740088       -1.29936882
 C            1.74962394        1.18988923       -1.53619396
 C            1.20492414        2.41025110       -1.92425020
 C            2.00887785       -1.18272095       -1.93904924
 C            1.69097974        0.09993758       -2.40889825
 C            1.35720542       -3.50111164       -1.86501248
 C            0.00721985       -3.93256654       -1.53824771
 C            1.50494414       -2.32702240       -2.59132498
 C           -1.96749226       -2.51306045       -1.61372428
 C           -1.02902965       -3.40186497       -2.28395026
 C           -2.54765908       -0.20148764       -2.11810792
 C           -2.37271286       -1.49986389       -2.57552949
 C           -2.11412086        2.15782094       -2.26655726
 C           -0.99509855        2.98539951       -2.40884926
 C            0.21968779        2.44172232       -2.99166438
 C           -2.08767795        0.89573324       -2.86389012
 C            1.06669077        0.26006397       -3.64532920
 C            0.11154444        1.33772699       -3.81441827
 C           -1.18401636        0.69839289       -3.90692398
 C            0.63838258       -2.18227316       -3.66800324
 C           -0.68139762       -2.77835164       -3.54975295
 C           -1.65439674       -1.73834942       -3.81102629
 C            0.48020407       -0.89139375       -4.29242031
 C           -0.94942531       -0.63443285       -4.42123088
