   70
C70 / DATE: 7/ 1/2024 / Origin: Program Fullerene / C70 from database
 C            1.19616419       -0.05040038        4.95858208
 C            2.50231819       -0.43831651        4.47402487
 C            2.33874102       -1.68904018        3.73541681
 C            0.35017763       -1.21889015        4.83962195
 C            0.94369656       -2.05819275        3.81324071
 C           -0.99363994       -0.72942666        4.62549245
 C            0.49794922        1.03499934        4.28436119
 C           -0.90203881        0.69640878        4.32440396
 C            1.04259001        1.57645637        3.11943218
 C            3.18901555        0.48280663        3.59921565
 C            2.42543912        1.55776216        2.98293799
 C            2.93993099       -1.51072154        2.42941437
 C            3.73269744       -0.30867218        2.51474074
 C            2.17234553       -1.70579883        1.27981147
 C            0.22746443       -2.28444158        2.63969386
 C            0.86778336       -2.20068271        1.38854231
 C           -1.76949187       -1.32359938        3.55989433
 C           -1.16777540       -2.24316649        2.70360945
 C           -1.70796219        0.94067481        3.14877059
 C           -2.52172863       -0.24229914        2.96044835
 C            0.23706008        1.80260692        1.98404995
 C           -1.13989546        1.52906683        2.02098026
 C            0.82267570        2.23502064        0.77799179
 C            2.99827351        1.74911518        1.67732008
 C            3.74579215        0.54213453        1.35656927
 C            2.22241098        2.28693352        0.66017893
 C            2.58213027       -1.10516068        0.07848357
 C            3.47981731       -0.02365806        0.12325192
 C            1.83570577       -1.32875476       -1.08984021
 C            0.13370662       -2.44528983        0.22618393
 C            0.57661376       -1.93919154       -1.00053365
 C           -1.89314375       -2.60517435        1.58037546
 C           -1.18064610       -2.87865933        0.34871311
 C           -3.05016363       -0.46276853        1.70233316
 C           -3.02317534       -1.76813035        1.22127894
 C           -1.85123769        1.42415550        0.82535924
 C           -2.95993079        0.56828802        0.77320998
 C            0.02832811        2.35577687       -0.38056353
 C           -1.31134232        1.94178526       -0.35339457
 C            0.62719218        2.70249067       -1.60196787
 C            2.77471363        2.15762477       -0.60496117
 C            3.43044290        0.89544834       -0.90546828
 C            1.99163127        2.51481533       -1.75777802
 C            2.21862757       -0.69443920       -2.27887288
 C            2.96529588        0.47179295       -2.19822385
 C            2.46567337        1.67112970       -2.84193804
 C            1.49721519       -0.91793870       -3.44549967
 C           -0.25800468       -2.00813014       -2.12715067
 C            0.22375616       -1.60353789       -3.36889079
 C           -2.11363070       -2.65030996       -0.73977640
 C           -3.29101601       -1.99146509       -0.18374451
 C           -1.62910471       -2.23322868       -1.97396547
 C           -3.63787739        0.40336639       -0.42558161
 C           -3.86549783       -0.95469443       -0.90270666
 C           -2.08793196        1.95471557       -1.51988614
 C           -3.26738903        1.21647084       -1.56322139
 C           -0.13989791        2.77593247       -2.75907671
 C           -1.52460468        2.36280478       -2.72505920
 C            1.66574570        1.52747433       -3.96042022
 C            1.35751458        0.17599520       -4.39904701
 C            0.43460468        2.29600626       -4.01008362
 C           -0.68474722       -0.97246020       -4.31685654
 C           -1.79852619        1.59946839       -3.93955988
 C           -0.00354867        0.16894744       -4.90034573
 C           -0.56331275        1.49072789       -4.68827730
 C           -2.52531795       -1.64713224       -2.86915466
 C           -3.67646712       -0.94745041       -2.33675389
 C           -3.56175477        0.43666306       -2.75137464
 C           -2.02280128       -0.84815077       -3.96964115
 C           -2.61763790        0.48350789       -3.84831900
