   70
C70 / DATE: 7/ 1/2024 / Origin: Program Fullerene / C70 from database
 C            1.60199439        0.03997731        4.55536525
 C            0.78473753       -1.15411536        4.46972692
 C            1.33406517       -2.01255416        3.43202638
 C            2.65081466       -0.07024925        3.55837132
 C            2.50276469       -1.34443723        2.88431454
 C            2.62372555        1.13178621        2.74681623
 C            0.76326345        1.16526890        4.18371845
 C            1.43795371        1.87918685        3.12374695
 C           -0.59586416       -0.72930437        4.33914247
 C           -0.57085622        0.66488048        3.92215077
 C           -1.46194009       -1.58690730        3.68776854
 C            0.44147597       -2.65440589        2.57165090
 C           -0.89168888       -2.71727001        2.97206207
 C            0.76886780       -2.78010054        1.21065450
 C            2.70236399       -1.37948666        1.51545031
 C            2.01719765       -2.33302138        0.76907798
 C            2.91524341        1.01966054        1.38712068
 C            3.20911150       -0.24498340        0.87520355
 C            2.42656951        2.00281308        0.51633832
 C            0.68498723        2.41827865        2.09716422
 C            1.37063044        2.81217129        0.96151453
 C           -1.20463462        1.03978045        2.73458062
 C           -0.66686772        2.07465395        1.96304491
 C           -2.44644495       -1.01812860        2.79135999
 C           -2.16978907        0.20016926        2.17453864
 C           -1.89810359       -3.15858545        2.03580596
 C           -2.92241571       -2.12184589        1.98884642
 C           -0.19034424       -3.20601952        0.27319916
 C           -1.50559852       -3.43329138        0.67219226
 C            0.07907965       -3.11410613       -1.09760997
 C            2.39262622       -2.53449601       -0.55118761
 C            1.37388366       -2.85348159       -1.52916745
 C            3.59046413       -0.34978333       -0.45376736
 C            3.30811885       -1.58627717       -1.16036863
 C            2.73770010        1.92283239       -0.85118231
 C            3.29966406        0.75142846       -1.35351416
 C            2.10257454        2.76623565       -1.76006408
 C            0.68822789        3.62688497        0.07764068
 C            1.18037835        3.76481305       -1.27055467
 C           -1.35023939        2.49999189        0.81902973
 C           -0.75467936        3.48509510        0.02636526
 C           -2.62143218        0.44647182        0.87269161
 C           -2.34913133        1.68262340        0.27994458
 C           -3.22290251       -1.88242806        0.59698130
 C           -2.58266854       -2.93891591       -0.16174460
 C           -3.16878562       -0.58758299        0.09509193
 C           -0.96804567       -2.89420349       -1.99418040
 C           -2.32330235       -2.70707909       -1.50085689
 C           -0.76825688       -1.96264086       -3.09536420
 C            1.56808896       -1.97831933       -2.67730694
 C            2.79487404       -1.24593365       -2.47653149
 C            2.75661074        0.19328945       -2.58320750
 C            0.46418262       -1.32791175       -3.21742754
 C            1.52854387        2.18309799       -2.96380669
 C            1.65017688        0.80939268       -3.15788549
 C            0.51420086        0.05039479       -3.48574105
 C            0.03464769        3.80432251       -2.16200191
 C           -1.16827776        3.67283326       -1.35307020
 C            0.27323913        2.85893213       -3.24101959
 C           -2.87302227        1.95646128       -0.98344755
 C           -2.22904768        2.93272041       -1.84696600
 C           -3.24353599       -0.43292140       -1.28698097
 C           -2.83079753       -1.48601662       -2.10678687
 C           -1.99838680       -1.21135002       -3.26746716
 C           -3.30684711        0.84881822       -1.81425848
 C           -0.63380935        0.69810452       -3.94840149
 C           -0.79314029        2.12802614       -3.73913823
 C           -2.11480988        2.34802886       -3.17349056
 C           -1.93694918        0.08214385       -3.75545387
 C           -2.81043343        1.07658396       -3.16074602
