   70
C70 / DATE: 7/ 1/2024 / Origin: Program Fullerene / C70 from database
 C            1.53638451        0.08438096        5.10461018
 C            0.76370177       -1.14230636        5.04733864
 C            1.66039186       -2.17593542        4.58219394
 C            2.71016769       -0.10422957        4.26593029
 C            2.82229682       -1.51587551        3.99462523
 C            2.60044309        0.81001095        3.14555231
 C            0.73556998        1.13224349        4.50167747
 C            1.51797278        1.72861620        3.44458530
 C           -0.45098135       -0.86809967        4.29078061
 C           -0.54704833        0.57350379        4.13388584
 C           -0.81729644       -1.68889526        3.21740877
 C            1.16196781       -3.11877540        3.60593528
 C           -0.13501069       -2.88356803        2.98879514
 C            2.91457676       -1.95055489        2.61531111
 C            2.13208854       -3.16144454        2.52735518
 C            2.72802558        0.34874850        1.82908313
 C            2.81514008       -1.02738405        1.56940844
 C            2.30141467        1.20619686        0.80489240
 C            0.83916037        2.25640970        2.36241855
 C            1.52685205        2.31259848        1.16491023
 C           -1.15255296        1.06013109        2.98520954
 C           -0.55097216        2.11958669        2.29763053
 C           -1.61230374       -1.15236920        2.19674710
 C           -1.96665916        0.19662545        2.26861056
 C           -1.76683044       -1.84861025        0.98663745
 C           -0.01931201       -3.36975197        1.63014176
 C            1.39344196       -3.38744440        1.30866229
 C           -0.86896109       -2.86789814        0.65457221
 C            2.47421506       -1.49657406        0.29782876
 C            1.76971461       -2.70382260        0.16546342
 C            2.28659886        0.75443045       -0.52306746
 C            2.48121451       -0.60533568       -0.77661568
 C            1.83028741        1.60855460       -1.54155470
 C            0.98002924        3.10944471        0.18200951
 C            1.32428171        2.85622214       -1.19533564
 C           -1.20686110        2.64091422        1.17443267
 C           -0.45248391        3.34742302        0.23716452
 C           -2.76422341        0.74828160        1.28252095
 C           -2.41354818        2.06561416        0.77811531
 C           -2.57902585       -1.31480068       -0.02409747
 C           -3.16516003       -0.06814659        0.15556680
 C           -2.49960827       -1.83901287       -1.31402977
 C           -0.44279521       -2.96279928       -0.66833632
 C            0.92723957       -2.84280031       -0.92850653
 C           -1.36940430       -2.68011795       -1.66051724
 C            2.20164664       -1.11414537       -2.04030095
 C            1.35930774       -2.29006477       -2.12292697
 C            1.61803154        1.12828571       -2.83925667
 C            1.81360587       -0.22034524       -3.11118103
 C            0.90672659        1.90183391       -3.76234815
 C            0.26293137        3.44071419       -1.98833874
 C           -0.91957848        3.48540207       -1.13479130
 C            0.12687798        3.04045398       -3.30352631
 C           -2.83660390        2.13000280       -0.61256224
 C           -3.34601458        0.81885137       -0.98401443
 C           -2.09573338        2.85351872       -1.54132379
 C           -2.79317705       -0.99306319       -2.46392317
 C           -3.12119867        0.35066676       -2.27424521
 C           -0.92350677       -2.31529532       -2.99329933
 C            0.42825922       -2.10605592       -3.21837417
 C            0.86077358       -0.93183277       -3.95437410
 C           -1.89579420       -1.38731883       -3.54484338
 C            0.12931645        1.23067767       -4.79236565
 C           -0.06613350       -0.20222495       -4.68614514
 C           -1.49027267       -0.44111187       -4.47737196
 C           -1.21478341        2.88717841       -3.82665664
 C           -2.28170226        2.57326200       -2.89351956
 C           -2.83435653        1.28005212       -3.27286283
 C           -1.18121405        1.85350916       -4.84440202
 C           -2.15954617        0.84366499       -4.48299690
