   70
C70 / DATE: 7/ 1/2024 / Origin: Program Fullerene / C70 from database
 C            1.40661708       -0.28510934        5.11117479
 C            0.57144516       -1.44952305        4.92669817
 C            1.15148890       -2.24198534        3.85271319
 C            2.52172337       -0.40683305        4.19030659
 C            2.25189950       -1.49951467        3.28240771
 C            2.70366877        0.89088798        3.60703131
 C            0.63852124        0.88040348        4.69690731
 C            1.49811543        1.66754213        3.85668989
 C           -0.71967499       -0.98256024        4.45663792
 C           -0.60861653        0.42364439        4.13186671
 C            0.07176150       -2.60372304        2.97549664
 C           -1.10784566       -1.86823869        3.39228002
 C            0.30438289       -2.65690107        1.60822023
 C            2.25613567       -1.23752785        1.90662489
 C            1.36683130       -1.92291269        1.05994162
 C            3.19966110        0.96657540        2.32181022
 C            2.91631015       -0.09456120        1.43473271
 C            3.16510429        2.24580781        1.80783622
 C            0.95292882        2.33503467        2.76337577
 C            1.89614094        2.94314811        1.94554371
 C           -0.96726690        0.83079131        2.84225505
 C           -0.21308132        1.81061591        2.16896235
 C           -1.87852975       -1.35669025        2.36588225
 C           -1.84022435        0.01738861        2.11036564
 C           -0.82558537       -2.80442427        0.82567778
 C           -1.99164964       -2.17166165        1.25986540
 C           -0.65411466       -2.97133620       -0.53434768
 C            1.33539302       -1.61819761       -0.31513825
 C            0.36821393       -2.22790240       -1.14066053
 C            2.97900637        0.13598661        0.05186099
 C            2.11271118       -0.56103146       -0.81243751
 C            3.63795646        2.44280390        0.47083008
 C            3.63348525        1.28741735       -0.39364591
 C            1.52033620        3.38491747        0.62570719
 C            2.75717395        3.42265280       -0.13127578
 C           -0.49239459        2.07098459        0.81233845
 C            0.37991099        2.84783031        0.03785103
 C           -2.28775207        0.44608052        0.85931983
 C           -1.59750328        1.46994912        0.19971662
 C           -2.91341082       -1.80273404        0.30069372
 C           -3.08537332       -0.42658871        0.10938908
 C           -1.80511103       -3.27977923       -1.24682291
 C           -3.03261624       -2.67038546       -0.77521385
 C           -1.78941049       -3.18214079       -2.68101811
 C            0.24729285       -1.82942660       -2.48253016
 C           -0.79416908       -2.32524351       -3.27805924
 C            1.97782376       -0.17271910       -2.15803177
 C            0.94918551       -0.71270434       -2.93152470
 C            3.35913433        1.80584423       -1.70907618
 C            2.70567918        3.10164847       -1.53150667
 C            2.51595037        1.03885140       -2.59178194
 C            0.26265369        2.84983053       -1.35877137
 C            1.40880809        2.97875414       -2.15207220
 C            1.61926069        2.00514663       -3.19412558
 C           -1.86433348        1.72762077       -1.15187162
 C           -0.87196101        2.29856297       -1.95511065
 C           -3.64985954        0.05056412       -1.06885798
 C           -2.97834887        1.13651701       -1.75544391
 C           -3.82240619       -2.28425504       -1.91881379
 C           -3.10589086       -2.72487040       -3.10371142
 C           -4.14150602       -0.88254945       -2.07102308
 C           -1.49229994       -1.42116263       -4.18118190
 C           -2.93185100        0.79772717       -3.17084602
 C           -2.91743958       -1.56821439       -3.95438165
 C           -3.63940958       -0.45468972       -3.36408980
 C            0.38874087        0.08184948       -3.93604917
 C            0.50091607        1.51532175       -3.82076691
 C           -0.78541233        1.93407214       -3.30223346
 C           -0.98051157       -0.14778837       -4.33925826
 C           -1.74680882        1.00311254       -3.85733112
