   70
C70 / DATE: 7/ 1/2024 / Origin: Program Fullerene / C70 from database
 C            1.13793716       -0.08122892        4.55447157
 C            2.30889855       -0.41307653        3.77808745
 C            2.13135177       -1.76616821        3.27167466
 C            0.27783141       -1.25398656        4.56883627
 C            0.76749455       -2.16079597        3.54539479
 C           -1.08953331       -0.78889269        4.48271397
 C            0.32649746        1.04366323        4.13634704
 C           -1.05972847        0.65450366        4.30567026
 C            0.66509393        1.76728479        2.99563296
 C            2.65606465        0.42610823        2.64732818
 C            1.85448479        1.50671741        2.29807593
 C            2.58444301       -1.77382556        1.89964175
 C            3.10320800       -0.45463808        1.59315522
 C            1.81736406       -2.40107252        0.92764866
 C           -0.06352853       -2.50667154        2.47783167
 C            0.49833390       -2.78690852        1.21940747
 C           -1.93325316       -1.33082749        3.44013674
 C           -1.44841060       -2.33134374        2.60272860
 C           -2.00459862        0.99539150        3.25227299
 C           -2.66113155       -0.22884410        2.83410631
 C           -0.34619741        2.47138195        2.34902058
 C           -1.62127990        1.90211778        2.27645104
 C            0.02464947        3.40480080        1.39410177
 C            2.02160804        2.06062499        1.02606191
 C            1.28469338        3.19287003        0.70498510
 C            3.00463067       -0.02439520        0.27718951
 C            2.56739842        1.27713951        0.00013148
 C            2.17678947       -2.17268743       -0.39725819
 C            2.86668029       -0.99569659       -0.70812900
 C            1.51404401       -2.87604433       -1.39089263
 C           -0.31533959       -3.28719653        0.19448518
 C            0.19080640       -3.39477079       -1.10251502
 C           -2.26734316       -2.68394557        1.54088326
 C           -1.69244925       -3.33261545        0.38251226
 C           -3.06926852       -0.37741385        1.50918639
 C           -3.20625553       -1.68494897        1.05333875
 C           -2.28346418        1.86745200        1.05081589
 C           -2.80319262        0.65165392        0.58846307
 C           -0.95884651        3.80626283        0.40980939
 C           -2.06995271        2.90981415        0.15537627
 C            1.10589146        3.56613506       -0.68450070
 C           -0.26384865        4.02921993       -0.84226925
 C            2.45512745        1.67772723       -1.34039893
 C            1.65344873        2.77624445       -1.68870062
 C            3.03276627       -0.60429693       -2.02889319
 C            2.92887431        0.81199823       -2.33184289
 C            1.51009405       -2.37418524       -2.75285347
 C            2.37083964       -1.34226975       -3.09272265
 C           -0.66274016       -3.07848265       -2.24291747
 C            0.12128087       -2.28761375       -3.17080042
 C           -2.57249264       -3.04464794       -0.73749110
 C           -3.42345352       -1.93161768       -0.35184309
 C           -1.98242032       -2.72504262       -2.02143768
 C           -2.85755691        0.40790042       -0.79571446
 C           -3.18475742       -0.85245563       -1.28033615
 C           -2.41773238       -1.38606324       -2.39118435
 C           -2.08759460        2.62779570       -1.26709740
 C           -1.06823168        3.45087059       -1.90178616
 C           -2.27205403        1.31260121       -1.67801415
 C            1.03979595        2.82855566       -2.94283856
 C           -0.40587695        2.94986146       -3.00917311
 C            2.44491436        0.92435309       -3.69391254
 C            1.92810666       -0.37623800       -4.08293491
 C            1.42436577        1.90216288       -3.98583179
 C           -0.37353916       -1.06910848       -3.63168369
 C           -1.53461217       -0.53735918       -3.05515845
 C           -1.63462149        0.84023924       -2.83129175
 C           -0.88050903        1.71657271       -3.60461187
 C            0.50125748       -0.23098880       -4.31819393
 C            0.21874833        1.18834038       -4.38874479
