   70
C70 / DATE: 7/ 1/2024 / Origin: Program Fullerene / C70 from database
 C            1.11064067       -0.24155416        4.66424230
 C            2.36866441       -0.53548803        4.01247650
 C            2.22265300       -1.80150814        3.30985383
 C            0.25100789       -1.40037837        4.49084224
 C            0.84288730       -2.22768497        3.45756052
 C           -1.09568319       -0.91457392        4.29731952
 C            0.36076476        0.92373014        4.22910095
 C           -1.03669323        0.53837673        4.21047185
 C            0.85596440        1.70874605        3.18795432
 C            2.88915876        0.42345273        3.06159566
 C            2.21333507        1.61889621        2.84109749
 C            2.75645433       -1.62802718        1.96652795
 C            3.36253422       -0.31324488        1.90364366
 C            2.00356450       -2.06437862        0.88460274
 C            0.11807472       -2.52321512        2.30499830
 C            0.82365584       -2.76577598        1.12733255
 C           -1.84239585       -1.38139113        3.14622260
 C           -1.25901051       -2.26012743        2.23641087
 C           -1.85403273        0.93898308        3.08022053
 C           -2.55839603       -0.24191895        2.61798249
 C           -0.04975482        2.34150418        2.32335887
 C           -1.32399565        1.80458381        2.12947449
 C            0.41348435        3.29140581        1.42423350
 C            2.69927145        2.41300791        1.81041646
 C            1.84120423        3.43182215        1.24537738
 C            3.40269254        0.35238577        0.68334808
 C            3.37982408        1.74836411        0.70913148
 C            2.20440726       -1.47497495       -0.36610568
 C            2.98155459       -0.31393994       -0.47145569
 C            1.50707416       -1.97186198       -1.47478070
 C            0.14763632       -3.32134626        0.05582317
 C            0.60038227       -3.01355490       -1.28691434
 C           -1.91601926       -2.44991437        1.01726737
 C           -1.29883310       -3.24481655        0.05510992
 C           -2.94638944       -0.28973647        1.28968878
 C           -2.87997548       -1.51348796        0.62330949
 C           -1.89811712        1.82611301        0.85444578
 C           -2.87966827        0.88249750        0.54028252
 C           -0.21010160        3.37729331        0.11500865
 C           -1.30176481        2.56874323       -0.16958755
 C            2.11229967        3.50796075       -0.17992854
 C            3.09976313        2.49496896       -0.50599568
 C            0.83942400        3.49320373       -0.88031959
 C            3.05241560        0.35551149       -1.68701451
 C            2.96484597        1.80606707       -1.70018526
 C            1.53822473       -1.29572984       -2.69887662
 C            2.29090659       -0.13186608       -2.82229101
 C            0.56901700       -1.56411721       -3.66740207
 C           -0.54728173       -3.13849280       -2.16613857
 C           -1.73740268       -3.19234218       -1.32962993
 C           -0.56409418       -2.41611954       -3.34847999
 C           -3.46758680       -1.60559750       -0.63556795
 C           -2.85026868       -2.43247997       -1.65884462
 C           -3.44466047        0.88423774       -0.72993431
 C           -3.91790575       -0.37853453       -1.26935098
 C           -1.56794383        2.24367124       -1.49912671
 C           -2.76160707        1.59490997       -1.79548452
 C            0.72428961        2.75952672       -2.05733861
 C            1.86305822        2.14714866       -2.58311203
 C            1.71062031        1.02723712       -3.49068034
 C           -0.53541947        2.29471506       -2.44411433
 C            0.07401202       -0.46849797       -4.48135016
 C            0.50573750        0.87671070       -4.15672830
 C           -0.65126798        1.59410086       -3.64580141
 C           -1.77639871       -1.72161346       -3.75917386
 C           -2.88071592       -1.69738189       -2.91473259
 C           -3.55759605       -0.43333833       -2.67449439
 C           -2.88505645        0.81097381       -3.01281415
 C           -1.37680098       -0.49599562       -4.43278085
 C           -1.82866762        0.78415758       -3.91019695
