   70
C70 / DATE: 7/ 1/2024 / Origin: Program Fullerene / C70 from database
 C            1.27299599       -0.10966955        4.08365470
 C            2.39184857       -0.29604438        3.17548668
 C            2.34968735       -1.67320937        2.70932524
 C            0.42071294       -1.28330977        3.98674375
 C            1.06221442       -2.22412204        3.10121835
 C           -0.91425855       -0.84018260        3.66203193
 C            0.43465950        1.06419607        3.93526478
 C           -0.93150059        0.61281281        3.73256419
 C            0.90632906        2.12833394        3.19012671
 C            2.72972746        0.71778569        2.28450112
 C            2.11252333        1.96556860        2.38623541
 C            3.39682216        0.38609064        1.10883348
 C            2.85580195       -1.99595466        1.45081651
 C            3.49239457       -1.00841839        0.70134528
 C            2.33813561       -3.11607259        0.80183474
 C            0.31007858       -2.87935859        2.13716038
 C            1.03312512       -3.61710562        1.20926048
 C           -1.61868327       -1.46620585        2.63633602
 C           -0.95809686       -2.37557073        1.78765686
 C           -2.77425162       -0.82548956        2.18821128
 C           -1.78761531        1.30306464        2.87580291
 C           -2.90116260        0.60508983        2.42157459
 C           -0.03526822        2.91070838        2.41294281
 C           -1.30823145        2.40416522        2.14519068
 C            1.94949204        2.77809994        1.19135194
 C            0.72176581        3.53853689        1.34635362
 C            3.18635489        1.18969857       -0.08649975
 C            2.27859015        2.23505669       -0.04827427
 C            3.43838456       -1.04842137       -0.75335232
 C            3.20816347        0.30746759       -1.23226918
 C            2.41599157       -3.21846664       -0.64728763
 C            2.81553414       -2.11390116       -1.39698366
 C            0.36628795       -4.13510999        0.03881708
 C            1.27611003       -4.00484031       -1.08519492
 C           -1.48985595       -2.62807370        0.51204234
 C           -0.89419716       -3.54374377       -0.33926951
 C           -3.25450648       -1.08020139        0.84516745
 C           -2.42017727       -1.75364370       -0.02584001
 C           -3.71107704        1.15826483        1.36109039
 C           -3.95071082        0.10186179        0.38882649
 C           -2.01902617        2.90395172        1.04203861
 C           -3.21438467        2.30874525        0.64313892
 C            0.04980550        3.95207291        0.21295297
 C           -1.39098927        3.78336665        0.15919844
 C            1.47134566        2.49717928       -1.15820672
 C            0.57218226        3.55984449       -1.08388793
 C            2.32155958        0.51254541       -2.28157522
 C            1.39561412        1.57054298       -2.21737724
 C            2.28273858       -1.91010701       -2.67200974
 C            2.12154686       -0.54847029       -3.16069688
 C            0.51052228       -3.54180619       -2.22279931
 C           -0.83644353       -3.22922990       -1.75585142
 C            1.12489914       -2.68011011       -3.11532532
 C           -2.28490367       -1.33429115       -1.35536448
 C           -1.48682898       -2.08417824       -2.22771567
 C           -3.63538568        0.62841318       -0.92304016
 C           -3.45200394        2.06049769       -0.77065928
 C           -2.77315647       -0.07984142       -1.75745982
 C           -1.75693722        3.75332864       -1.24629365
 C           -0.52798565        3.62533869       -2.01594349
 C           -2.68760025        2.73752550       -1.70761598
 C            0.34766641        1.64802013       -3.15716615
 C           -2.17321045        0.59371773       -2.82517303
 C           -0.69668876        2.53654034       -2.94416207
 C           -2.02695053        1.98016263       -2.75773723
 C            0.98462627       -0.53455233       -4.04861267
 C            0.28496509       -1.79878407       -3.89908914
 C           -1.05345629       -1.50586963       -3.41636043
 C            0.01491089        0.51864364       -3.89069469
 C           -1.28056913       -0.09288295       -3.63930814
