   70
C70 / DATE: 7/ 1/2024 / Origin: Program Fullerene / C70 from database
 C            1.12633901        0.02665151        4.58298280
 C            2.35857306       -0.39693432        3.95470635
 C            2.21924904       -1.80452240        3.61462111
 C            0.27085054       -1.14451580        4.68952123
 C            0.82508850       -2.15714881        3.81500677
 C           -1.08479565       -0.70751503        4.46579947
 C            0.34425570        1.06714894        3.94208999
 C           -1.04439150        0.71381806        4.14437836
 C            0.73597420        1.55244551        2.69557625
 C            2.79322513        0.28924718        2.75666793
 C            2.04280393        1.34332769        2.23913185
 C            2.80567410       -2.00368894        2.29943392
 C            3.27434122       -0.71209344        1.82799267
 C            2.15724846       -2.83995329        1.40784338
 C            0.09005507       -2.62995337        2.72498154
 C            0.78719866       -3.24459008        1.69026998
 C           -1.85563131       -1.34659454        3.42051516
 C           -1.23567532       -2.21568784        2.51580298
 C           -1.98127725        0.92901050        3.05746974
 C           -2.72172899       -0.30902265        2.90212413
 C           -0.23358253        2.03511992        1.80776631
 C           -1.55983326        1.59802026        1.91014601
 C            0.17861588        2.68416008        0.64478269
 C            2.37196612        1.78754868        0.96131913
 C            1.54367017        2.72848274        0.35786305
 C            3.21107849       -0.39510405        0.47598208
 C            3.15036032        0.95283697        0.15083854
 C            2.24230910       -2.55264505       -0.01263105
 C            2.69105260       -1.31286878       -0.44457024
 C            0.13395441       -3.47807947        0.42168719
 C            1.06901672       -3.12235969       -0.63735303
 C           -1.86682242       -2.45186208        1.28358339
 C           -1.20610672       -3.15202084        0.26375479
 C           -3.35190599       -0.54047829        1.69653793
 C           -3.05921907       -1.77954389        1.00269897
 C           -2.33493536        1.48706153        0.75350217
 C           -3.31902706        0.50343776        0.68759883
 C           -0.74828952        2.88220659       -0.37937447
 C           -1.89339939        2.08629397       -0.42464267
 C           -0.39292928        3.64318630       -1.48626931
 C            1.98389072        3.33489522       -0.81382825
 C            1.01144041        3.91226916       -1.72138802
 C            3.32735092        1.28710914       -1.18191859
 C            2.95363084        2.61745573       -1.61546967
 C            2.29562711       -0.85701406       -1.70640933
 C            2.84218685        0.33863179       -2.16869522
 C            0.56127847       -2.55453720       -1.80046139
 C            1.11678853       -1.35559027       -2.28501217
 C           -1.69424370       -3.11232538       -1.04340523
 C           -0.74621942       -2.89334150       -2.12549656
 C           -3.46917188       -1.57904034       -0.37258803
 C           -3.58393614       -0.13951559       -0.58401029
 C           -2.89915281       -2.36518387       -1.35680235
 C           -2.40839190        1.65912947       -1.65826123
 C           -3.06703241        0.43095709       -1.74120358
 C           -0.98687633        3.32576244       -2.76710012
 C           -1.92741310        2.22276495       -2.83705216
 C            1.33274737        3.45481063       -3.06661876
 C            2.41849948        2.50241919       -2.95761538
 C            2.15302338        1.09098476       -3.19817081
 C            0.10004364        3.01776912       -3.68363867
 C            0.45717930       -0.61433074       -3.28544907
 C           -1.45905880        1.33118647       -3.88406743
 C            0.88635262        0.67889038       -3.59500994
 C           -0.04796553        1.61908592       -4.04251170
 C           -1.42621173       -2.18835626       -3.18276834
 C           -2.74084956       -1.80836010       -2.68745061
 C           -2.86276142       -0.37326202       -2.86199827
 C           -0.80682046       -1.00161048       -3.72834659
 C           -1.84728427        0.00552482       -3.82738815
