   70
C70 / DATE: 7/ 1/2024 / Origin: Program Fullerene / C70 from database
 C            1.60478436        0.08457412        4.44255605
 C            0.79495669       -1.11163270        4.30631569
 C            1.35228588       -1.91857435        3.23380349
 C            2.64836612        0.02691271        3.43611425
 C            2.53572872       -1.23489934        2.73959750
 C            2.57523898        1.23627024        2.64745836
 C            0.75846314        1.22367541        4.13228869
 C            1.37094103        1.94674541        3.03995415
 C           -0.58792859       -0.69501250        4.20272651
 C           -0.59351666        0.74012078        3.95632305
 C           -1.44741934       -1.48926686        3.46137827
 C            0.48427905       -2.51444013        2.31521971
 C           -0.88470784       -2.50632572        2.58112445
 C            0.92854712       -2.74182870        1.00704231
 C            2.77222507       -1.25673561        1.37520518
 C            2.19763025       -2.27853685        0.63953748
 C            2.85971216        1.16076297        1.28941621
 C            3.14751564       -0.08293509        0.71080913
 C            2.37465127        2.17599711        0.47338996
 C            0.56490878        2.45469105        2.02863101
 C            1.18151863        2.81113508        0.83271029
 C           -1.35594597        1.23527284        2.90111982
 C           -0.81498560        2.19923165        2.03413634
 C           -2.52998772       -0.85131804        2.73563436
 C           -2.49012457        0.52138133        2.51527463
 C           -1.82570116       -2.70866285        1.49488733
 C           -2.89237277       -1.72703915        1.63564492
 C            0.02098804       -3.16669017        0.02443072
 C           -1.35178985       -3.01179244        0.22776777
 C            0.47806350       -3.46574171       -1.25698119
 C            2.67860119       -2.49041351       -0.64046280
 C            1.86741422       -3.22235245       -1.58628110
 C            3.41280459       -0.14403330       -0.66525601
 C            3.29062172       -1.36939141       -1.33291102
 C            2.83829371        2.23606227       -0.83402704
 C            3.43248078        1.04005978       -1.40513224
 C            2.03987607        2.88283234       -1.86286893
 C            0.43583125        3.49196557       -0.11801883
 C            0.81253290        3.42457261       -1.51864057
 C           -1.61101232        2.72177981        1.00669357
 C           -1.01271286        3.42165732       -0.04376383
 C           -3.32225672        1.05040292        1.54068025
 C           -2.91609453        2.26033802        0.85370116
 C           -3.46911457       -1.17032491        0.49631321
 C           -3.90435341        0.15324843        0.55223977
 C           -2.18740693       -2.77400652       -0.86039589
 C           -3.23744341       -1.77343889       -0.74169086
 C           -0.31399716       -3.05165841       -2.40244378
 C           -1.62471586       -2.66262701       -2.19539999
 C            1.90648880       -2.50905616       -2.85202461
 C            2.84037309       -1.40828683       -2.72042053
 C            0.53699199       -2.21298658       -3.22749409
 C            3.08144587        1.00754317       -2.81352152
 C            2.11791972        2.06468081       -3.05899530
 C            2.54438894       -0.21788893       -3.36467910
 C            0.17231747       -0.88797807       -3.47256279
 C            0.90008071        1.45333084       -3.56494083
 C            1.16600591        0.04251597       -3.76815650
 C           -0.36721216        3.00715893       -2.25674496
 C           -1.51301646        3.25920173       -1.40440778
 C           -0.31916350        1.84344103       -3.02418700
 C           -3.50825378        2.22647141       -0.47307749
 C           -4.07940486        0.90611481       -0.67604986
 C           -2.67154177        2.53168932       -1.61605171
 C           -3.21803995       -0.97525671       -1.96299435
 C           -2.06263368       -1.38959590       -2.73585417
 C           -1.10835194       -0.44824766       -3.12100652
 C           -1.36229323        0.91841700       -2.93636042
 C           -3.54034230        0.36902650       -1.90923365
 C           -2.60143188        1.33969417       -2.44708832
