   70
C70 / DATE: 7/ 1/2024 / Origin: Program Fullerene / C70 from database
 C            1.31670468        0.00979062        4.25298268
 C            2.57936006       -0.40791991        3.69695343
 C            2.55929830       -1.85790093        3.57869730
 C            0.47450135       -1.16890449        4.40156544
 C            1.23814825       -2.32503308        3.97289342
 C           -0.79848163       -0.88663413        3.75813094
 C            0.54754683        1.00544718        3.53735890
 C           -0.81803047        0.52699134        3.45867998
 C            1.07919086        1.65095739        2.41776630
 C            2.98330601        0.13867970        2.41643309
 C            2.26105151        1.17910376        1.82514500
 C            3.07765452       -2.20530072        2.26391354
 C            3.39557233       -0.96717098        1.57568420
 C            2.49019799       -3.24245820        1.55422614
 C            0.60767976       -3.29529213        3.20442704
 C            1.35168003       -3.93412517        2.13194238
 C           -1.30365971       -1.77463150        2.81752147
 C           -0.74190823       -3.05088821        2.71193868
 C           -2.14742257       -1.29615309        1.80877144
 C           -1.57981776        0.98395771        2.39937171
 C           -2.31706884        0.08359100        1.62420804
 C            0.18978060        2.39371122        1.63762254
 C           -1.18122983        2.17215302        1.81314181
 C            0.64735091        2.98759589        0.46015578
 C            2.48318314        1.43195933        0.46733971
 C            1.79296824        2.47908203       -0.15136432
 C            3.17271686       -0.84815034        0.21211815
 C            3.09242007        0.43608649       -0.31101143
 C            2.23263464       -3.07450772        0.13327289
 C            2.55135247       -1.88187087       -0.49694294
 C            0.41992451       -4.23536816        1.05923875
 C           -0.90151942       -3.81412409        1.48416219
 C            0.95693787       -3.69113183       -0.17803401
 C           -2.57299418       -2.17076092        0.81895493
 C           -1.77129759       -3.34127279        0.51866049
 C           -3.01033470       -1.63821371       -0.45206701
 C           -2.99507512        0.57351500        0.49166637
 C           -3.31532353       -0.28795397       -0.56700332
 C           -2.09307654        2.79990518        0.98672430
 C           -3.05486819        1.95924633        0.29716201
 C           -0.20644694        3.82995755       -0.25161116
 C           -1.61957861        3.80883361        0.06526626
 C           -0.08564701        3.92914916       -1.69617525
 C            2.06605689        2.79172853       -1.48301107
 C            1.03314905        3.38920993       -2.31176248
 C            3.07335078        0.54113230       -1.69261743
 C            2.74729864        1.81128223       -2.29710927
 C            1.89352389       -1.57291818       -1.68579630
 C            2.37508401       -0.50023855       -2.42036420
 C            0.08933025       -3.04615401       -1.06148714
 C           -1.27763022       -3.16390289       -0.83861913
 C           -2.17768576       -2.24006665       -1.48397620
 C            0.56821825       -1.99155578       -1.85337542
 C           -1.71069037       -1.41960460       -2.49715575
 C           -0.32478082       -1.22061300       -2.62461121
 C           -3.39789905        0.21447361       -1.86551967
 C           -2.58325994       -0.41507166       -2.89200710
 C           -3.23763434        2.50826703       -1.03682977
 C           -2.36089077        3.66182934       -1.17426505
 C           -1.40640110        3.71076903       -2.26976687
 C           -3.39403874        1.64415068       -2.10730461
 C           -2.12710828        0.60703816       -3.79874508
 C           -1.55913153        2.84183213       -3.34427380
 C           -2.65255471        1.88279229       -3.33725905
 C            0.87660798        2.55436353       -3.49633088
 C            1.91319376        1.54016874       -3.45427398
 C            1.51917466        0.14115951       -3.39294665
 C            0.16752215       -0.17974239       -3.43339987
 C           -0.39487049        2.17280527       -3.90143931
 C           -0.70531510        0.75291884       -3.99564059
