   70
C70 / DATE: 7/ 1/2024 / Origin: Program Fullerene / C70 from database
 C            1.13811612        0.05799283        4.39242778
 C            2.42635534       -0.24613332        3.81621309
 C            2.44202476       -1.66716570        3.51894757
 C            0.31169543       -1.13852725        4.30048548
 C            1.07341043       -2.14762411        3.60597377
 C           -0.96695056       -0.74777101        3.75675502
 C            0.37501750        1.15082262        3.83021247
 C           -1.00164545        0.70464256        3.71846336
 C            0.90488885        1.92412098        2.80157718
 C            2.83151358        0.45671530        2.61393083
 C            2.03303942        1.47915037        2.09321447
 C            3.15260898       -1.85059893        2.26650709
 C            3.37912483       -0.52907596        1.69963117
 C            2.72916277       -2.86897764        1.42773755
 C            0.52872525       -2.78747530        2.49530954
 C            1.42633443       -3.46513589        1.67666379
 C           -1.50650641       -1.45151160        2.68809064
 C           -0.71044941       -2.36299673        1.97117351
 C           -2.61919138       -0.88637002        2.08018244
 C           -1.83297836        1.33069726        2.79220199
 C           -2.79215524        0.55899835        2.13997913
 C            0.03321694        2.81519200        2.19263118
 C           -1.39211637        2.51444271        2.20210140
 C            0.36285408        3.37499275        0.89952266
 C            2.19390326        1.82692483        0.74400890
 C            1.46737085        2.90062152        0.21060471
 C            3.20353998       -0.31707013        0.33787643
 C            2.93251951        0.97559672       -0.09253343
 C            2.82347704       -2.67633231       -0.00541760
 C            2.90264387       -1.38534191       -0.51441129
 C            0.97000153       -4.03642246        0.43398015
 C            1.89016048       -3.60440824       -0.61054965
 C           -1.15409250       -2.84266310        0.72191837
 C           -0.36588187       -3.72564056       -0.01484450
 C           -3.03140345       -1.33324325        0.76892371
 C           -2.25393769       -2.25490455        0.08881401
 C           -3.34353145        0.99616591        0.86670118
 C           -3.57295662       -0.18766772        0.05263347
 C           -1.94751963        2.95227332        0.93040871
 C           -0.87968539        3.59229087        0.17593476
 C           -2.87722414        2.16068200        0.26410690
 C           -0.88137180        3.51156646       -1.21390172
 C            1.56238659        3.21205677       -1.14143873
 C            0.34225208        3.48174028       -1.89007347
 C            2.99313896        1.21383942       -1.45674791
 C            2.44051078        2.43712300       -1.98714393
 C            2.38289443       -1.11885241       -1.78540114
 C            2.62937266        0.12773634       -2.34727129
 C            1.08800384       -3.15182761       -1.73195858
 C           -0.27825564       -3.55382587       -1.45169307
 C            1.32121963       -1.88784988       -2.27390301
 C           -2.38654732       -2.33983013       -1.29582045
 C           -1.30041869       -2.88271077       -2.09384677
 C           -3.42269655       -0.10335787       -1.32841801
 C           -2.94188105       -1.21068998       -2.03000050
 C           -3.02604520        2.31184655       -1.11113927
 C           -2.04238157        3.08470173       -1.85579277
 C           -3.38922728        1.15731828       -1.91946311
 C           -1.95938565        2.52242976       -3.19131369
 C           -2.77500508        1.32015457       -3.22478142
 C            0.45703439        2.81707046       -3.18422740
 C            1.71967759        2.10561041       -3.20364506
 C            1.70152627        0.65848930       -3.32769008
 C           -0.65520617        2.19479962       -3.72812837
 C            0.31006969       -1.28087673       -3.02857669
 C           -0.95411681       -1.86738017       -3.06999909
 C           -2.12364910       -1.02672404       -3.22383769
 C           -1.96442696        0.24174280       -3.75374255
 C            0.48758848        0.01104631       -3.53190367
 C           -0.61853983        0.75538817       -3.95622846
