   70
C70 / DATE: 7/ 1/2024 / Origin: Program Fullerene / C70 from database
 C            1.14141550       -0.01010941        4.48595084
 C            2.39176722       -0.24790419        3.80326136
 C            2.40387338       -1.63927477        3.39661304
 C            0.32529929       -1.21093165        4.34983095
 C            1.04285443       -2.13314533        3.50347425
 C           -0.99508654       -0.78953202        3.94574342
 C            0.32137666        1.10884004        4.06607562
 C           -1.04954152        0.65026402        4.14068259
 C            0.70216195        1.89149231        2.97634986
 C            2.70110479        0.54250618        2.63108091
 C            1.86385244        1.58105177        2.24691225
 C            3.05212865       -1.71452600        2.10134718
 C            3.19144046       -0.35453305        1.59960187
 C            2.60878009       -2.68603431        1.22490258
 C            0.43552406       -2.64040104        2.35708335
 C            1.27416814       -3.23897717        1.42481706
 C           -1.57567267       -1.33736726        2.80340852
 C           -0.80847677       -2.13670453        1.93719340
 C           -2.74143810       -0.73989804        2.33607190
 C           -2.02223279        1.36823809        3.46507339
 C           -3.03978999        0.62332654        2.74719074
 C           -0.25562277        2.74330379        2.41044295
 C           -1.61268900        2.47662332        2.61315104
 C            0.09725012        3.52493890        1.31284468
 C            2.00029988        2.06926952        0.95547926
 C            1.35838251        3.25711538        0.65492506
 C            2.88190431       -0.07395927        0.26376385
 C            2.39104121        1.19222441       -0.06837574
 C            2.73493163       -2.43748081       -0.19290205
 C            2.75832254       -1.12222917       -0.65523227
 C            0.75987086       -3.59906632        0.12185503
 C            1.84449211       -3.38429887       -0.82653366
 C           -1.26700817       -2.39500044        0.63011752
 C           -0.53288964       -3.22624105       -0.22932723
 C           -3.09566784       -0.85546045        0.93909654
 C           -2.34696460       -1.67351659        0.11047671
 C           -3.39863716        1.38236425        1.56145797
 C           -2.51584244        2.52078748        1.47098019
 C           -3.43974337        0.46737000        0.44932653
 C           -0.88493096        3.71929008        0.25962326
 C           -1.99747930        2.88861114        0.23393736
 C            1.23675181        3.67330234       -0.72291769
 C           -0.16475958        3.98910195       -0.96230449
 C            2.10813308        1.48713026       -1.40645649
 C            1.65436058        2.75620087       -1.76064777
 C            2.30913831       -0.86005051       -1.95319573
 C            2.01763303        0.45082626       -2.33871781
 C            1.52752482       -3.18729890       -2.15611431
 C            1.91503831       -1.92671980       -2.76833886
 C           -0.89095766       -3.31125624       -1.57709781
 C            0.16410977       -3.45461198       -2.56691622
 C           -2.40769532       -1.43482518       -1.25821990
 C           -1.86593096       -2.37960651       -2.11384913
 C           -2.91353778        0.85965113       -0.77365008
 C           -2.23722271        2.08577586       -0.89903489
 C           -2.67787765       -0.13962458       -1.70966661
 C           -0.56005323        3.29474817       -2.16608572
 C            0.67154117        2.87850156       -2.81782217
 C           -1.64032651        2.41212966       -2.13087314
 C            1.42531003        0.69253310       -3.58193607
 C            0.60335259        1.87786458       -3.76862630
 C            1.00334541       -1.69492598       -3.87549198
 C           -0.13685766       -2.57811346       -3.68387102
 C           -1.44668811       -1.99472594       -3.45185736
 C            0.77094710       -0.39350938       -4.28992811
 C           -2.36250868        0.23428397       -3.00582283
 C           -1.80882581        1.55782379       -3.22211579
 C           -0.71362146        1.42141750       -4.16987698
 C           -1.68196770       -0.69906955       -3.88839242
 C           -0.60088381        0.02202152       -4.53794438
