   70
C70 / DATE: 7/ 1/2024 / Origin: Program Fullerene / C70 from database
 C            1.30708951       -0.21251122        4.32826434
 C            2.53328898       -0.48497429        3.61982964
 C            2.47803130       -1.85540759        3.13214248
 C            0.47697312       -1.40733578        4.26561434
 C            1.16994150       -2.39232846        3.45499718
 C           -0.85983386       -0.98503958        3.87870221
 C            0.48806563        0.90304269        3.89739718
 C           -0.88814438        0.46146080        4.00052763
 C            0.86290642        1.67488816        2.79532360
 C            2.88884355        0.35933078        2.49849462
 C            2.07050227        1.42212014        2.11914582
 C            2.91735087       -1.84529758        1.74554342
 C            3.40453772       -0.50832802        1.46138392
 C            2.16525095       -2.50410951        0.77294641
 C            0.46346060       -3.06806394        2.47130532
 C            1.06799360       -3.26855259        1.16190475
 C           -1.48322376       -1.58955456        2.78603349
 C           -0.94194682       -2.75530049        2.25577806
 C           -2.43256846       -0.87058059        2.05297429
 C           -1.85333564        1.15935401        3.29995300
 C           -2.78501728        0.40848675        2.48275422
 C           -0.10069187        2.50673185        2.21401405
 C           -1.44835539        2.31133796        2.51079929
 C            0.23029422        3.27755438        1.10757988
 C            2.28644219        1.98327507        0.85874929
 C            1.50431846        3.05826802        0.45369751
 C            3.34875764       -0.06075467        0.15387462
 C            3.04320484        1.27837058       -0.08467681
 C            2.27496087       -2.08694904       -0.55768925
 C            3.09546108       -0.99097153       -0.84673228
 C            1.36082305       -2.55234659       -1.51498389
 C           -0.01548123       -3.48182552        0.22401665
 C           -1.26066406       -3.13137824        0.89454134
 C            0.15127642       -3.11901193       -1.10555201
 C           -2.83547436       -1.30970081        0.78302617
 C           -2.22219544       -2.41887603        0.18939076
 C           -3.72561753       -0.53375640        0.03476708
 C           -3.35737552        1.34966475        1.54167907
 C           -2.44280802        2.48406733        1.46104408
 C           -3.93933085        0.86108964        0.38640449
 C           -0.76870738        3.50850081        0.07237440
 C           -2.04995108        2.98355875        0.21818784
 C            1.32717276        3.33347381       -0.96271641
 C           -0.10220610        3.39973865       -1.21467952
 C            3.13755238        1.75561105       -1.39064334
 C            2.13751568        2.68751826       -1.87966296
 C            3.32009267       -0.61248800       -2.16307873
 C            3.39761329        0.80625523       -2.46308028
 C            1.50121968       -2.16940603       -2.84758643
 C            2.55192194       -1.23968944       -3.21581993
 C            0.31789281       -1.78428273       -3.59538993
 C           -0.99528228       -2.91783162       -1.87175478
 C           -2.23194648       -2.55412827       -1.19675882
 C           -0.92273110       -2.15358463       -3.10667632
 C           -3.71678916       -0.62327443       -1.41637348
 C           -2.91439633       -1.57443614       -2.02243771
 C           -1.98087110       -1.15793239       -3.05846591
 C           -3.82761983        1.64629683       -0.82604996
 C           -2.76171064        2.62643866       -0.92606308
 C           -3.69842683        0.72860445       -1.94321565
 C           -0.67132316        2.60763780       -2.21026293
 C           -1.66697670        0.19514192       -3.20706824
 C           -2.03948110        2.37264151       -2.16545241
 C           -2.56186743        1.15149494       -2.74463172
 C            1.51472550        2.06719077       -3.03363471
 C            2.45253496        1.08281239       -3.53349966
 C            1.94350379       -0.18108441       -4.00991678
 C            0.51344991       -0.40444042       -3.99351132
 C            0.14811948        1.78552679       -2.99012283
 C           -0.35073847        0.56804793       -3.48697435
