   70
C70 / DATE: 7/ 1/2024 / Origin: Program Fullerene / C70 from database
 C            1.36590883        0.16618509        4.75116767
 C            0.59747582       -1.05635005        4.62177913
 C            1.31565871       -1.94625094        3.72592079
 C            2.59047106       -0.00570535        3.99071361
 C            2.63940348       -1.37895068        3.52334199
 C            2.65988185        1.05602755        3.00171905
 C            0.59778172        1.22545751        4.12102299
 C            1.39192768        1.76530287        3.04170248
 C           -0.75391158       -0.68194777        4.26221411
 C           -0.71465706        0.69960268        3.80435728
 C           -1.48368483       -1.58147193        3.50889633
 C            0.62315398       -2.50670124        2.64854730
 C           -0.76239998       -2.58006452        2.72452376
 C            1.24735730       -2.60734239        1.40172522
 C            3.28694198       -1.62474155        2.32571345
 C            2.63142913       -2.47050549        1.34593857
 C            3.22143187        0.76527641        1.75770803
 C            3.80744657       -0.49105501        1.58126767
 C            2.77649163        1.47609651        0.63379057
 C            0.77462012        2.05286193        1.83731740
 C            1.57809219        2.20002902        0.71962926
 C           -1.29471079        1.01527464        2.57264774
 C           -0.58925374        1.79892358        1.65401770
 C           -2.50455672       -1.05594135        2.63262057
 C           -2.35639834        0.23313324        2.11826219
 C           -1.53094274       -2.80778774        1.51356236
 C           -2.80038676       -2.13280046        1.71596210
 C            0.48513935       -2.53888911        0.22087476
 C           -0.90310976       -2.70425935        0.27200161
 C            1.07010444       -2.12382566       -0.97933557
 C            3.27219167       -2.19800036        0.07611482
 C            4.05314311       -0.97929795        0.24060407
 C            2.44495034       -2.02398194       -1.09822882
 C            3.31938786        1.18373090       -0.62537869
 C            3.74197218       -0.11594481       -0.87467504
 C            2.98513090       -0.90154862       -1.83492201
 C            2.87197663        1.90119573       -1.72800563
 C            1.01790037        2.75392076       -0.42063677
 C            1.83428568        2.88812565       -1.53468651
 C           -1.14427454        2.04943318        0.39692126
 C           -0.37531623        2.71764757       -0.55852141
 C           -2.96477308        0.52760475        0.89554762
 C           -2.35433535        1.44400032        0.02489851
 C           -3.54810727       -1.82154767        0.60397568
 C           -3.84994158       -0.42181609        0.38428287
 C           -1.68631069       -2.40684330       -0.85420425
 C           -3.06768985       -2.28881077       -0.67518910
 C            0.27559520       -1.54119682       -1.95716614
 C           -1.07872960       -1.84952625       -1.98993598
 C            2.15926106       -0.20639168       -2.71179803
 C            2.46637593        1.13665288       -2.89487518
 C            0.82415832       -0.61416328       -2.86099565
 C            1.24869993        3.12938693       -2.83666665
 C            1.56562629        1.96888844       -3.65892237
 C           -0.98168777        3.14472586       -1.73255594
 C           -0.17802047        3.34838218       -2.92174987
 C           -2.88947511        1.66993456       -1.25830631
 C           -2.20770347        2.49690282       -2.15389626
 C           -4.28298625       -0.33174716       -0.99100729
 C           -3.86680519       -1.56940973       -1.64457945
 C           -3.79933518        0.76081631       -1.79824030
 C           -1.84125134       -1.41042767       -3.06818299
 C           -3.26594592       -1.21451728       -2.90692276
 C           -3.51763218        0.19931759       -3.10468807
 C           -0.02041291        0.09500923       -3.73139870
 C            0.31254125        1.40007420       -4.10071521
 C           -0.68323707        2.43980287       -3.93245381
 C           -2.00880033        2.03351554       -3.52643114
 C           -1.35510859       -0.29222984       -3.85424188
 C           -2.39202219        0.73875247       -3.83177676
