   70
C70 / DATE: 7/ 1/2024 / Origin: Program Fullerene / C70 from database
 C            1.35670194       -0.22476061        4.46862781
 C            2.58886490       -0.50552563        3.77219191
 C            2.51269488       -1.86112118        3.24756554
 C            0.51164878       -1.40765409        4.38108473
 C            1.19453318       -2.38551535        3.55371076
 C           -0.81637414       -0.95750602        3.99498274
 C            0.55554222        0.90330711        4.03511146
 C           -0.82516911        0.48229562        4.17335049
 C            0.92635921        1.63315841        2.90086699
 C            2.97799750        0.35984177        2.67865575
 C            2.20151910        1.46895519        2.33942614
 C            2.95675741       -1.82367694        1.86170825
 C            3.47409834       -0.49231868        1.61334773
 C            2.19179440       -2.43969377        0.87474432
 C            0.48339707       -3.02891474        2.55189810
 C            1.10067960       -3.21913790        1.24869172
 C           -1.42554336       -1.50487518        2.86439585
 C           -0.90968187       -2.67272283        2.31908061
 C           -2.32405768       -0.72760958        2.12476958
 C           -1.79236252        1.21110902        3.51292365
 C           -2.72463220        0.49096645        2.66868819
 C           -0.06292993        2.35135202        2.21497281
 C           -1.36086516        2.34695653        2.72380007
 C            0.17337802        2.81069507        0.91356005
 C            2.50467687        2.10501947        1.14031331
 C            1.47437784        2.84631260        0.43746979
 C            3.44778551       -0.00100480        0.31797878
 C            3.26645599        1.36909647        0.14450786
 C            2.27742234       -1.97147544       -0.43895070
 C            3.08757442       -0.86020702       -0.71751385
 C            1.40510166       -2.47898971       -1.41441738
 C            0.02335452       -3.42663324        0.30372865
 C           -1.21476067       -3.00727931        0.94564938
 C            0.21390412       -3.09974849       -1.03035520
 C           -2.55037725       -1.00772321        0.76199270
 C           -2.10614236       -2.22350419        0.22195188
 C           -3.19256071       -0.06839873       -0.06940661
 C           -3.33774872        1.48726059        1.82400537
 C           -2.47002118        2.66064234        1.84952412
 C           -3.57951237        1.17027311        0.43701384
 C           -0.88306832        2.97209778        0.00952697
 C           -2.19557398        3.01053406        0.47387717
 C           -3.22710813        2.36141414       -0.30975147
 C           -0.66191312        2.81782597       -1.36450898
 C            1.70934257        2.69953858       -0.99013535
 C            2.89842695        1.88199714       -1.16366061
 C            0.62138860        2.52313295       -1.84082259
 C            3.18930200       -0.38454424       -2.01882062
 C            2.97468752        1.03357547       -2.25629252
 C            1.58580231       -2.13686216       -2.75219402
 C            2.55265987       -1.11618869       -3.09324730
 C            0.42087728       -1.93908569       -3.59994226
 C           -0.92803011       -2.91706364       -1.80395902
 C           -2.12980582       -2.41513757       -1.15555756
 C           -0.82909215       -2.30544470       -3.11711431
 C           -3.13851655       -0.20924832       -1.45956889
 C           -2.70833804       -1.40631287       -2.01554794
 C           -1.96170527       -1.40536828       -3.26881247
 C           -3.01885268        2.23086422       -1.66796882
 C           -1.76309604        2.71224893       -2.21224399
 C           -3.22989593        0.92668731       -2.26550588
 C           -1.81095281       -0.22098683       -3.97825894
 C           -1.60644499        2.07167296       -3.50003393
 C           -2.54130631        0.95491040       -3.54387689
 C            0.79673585        1.85041113       -3.06060052
 C            1.97506476        1.14607955       -3.29990716
 C            1.89468603       -0.14835259       -3.95527389
 C            0.58512912       -0.67273718       -4.30097015
 C           -0.30261528        1.56784893       -3.86697713
 C           -0.48166792        0.21524812       -4.37349809
