   70
C70 / DATE: 7/ 1/2024 / Origin: Program Fullerene / C70 from database
 C            1.28450300        0.02831386        4.44720903
 C            2.56029064       -0.23128050        3.83114419
 C            2.57405044       -1.63441968        3.46046561
 C            0.45904092       -1.16476451        4.28417616
 C            1.19015330       -2.07515318        3.44245335
 C           -0.84350211       -0.71181908        3.84983910
 C            0.49215982        1.13096757        3.95070108
 C           -0.86976791        0.70196122        4.16347514
 C            0.80758677        1.72973310        2.72424711
 C            2.90894686        0.51339849        2.64182985
 C            1.95177241        1.32809750        2.02474799
 C            3.34401343       -1.74724059        2.23519757
 C            3.69929160       -0.39280390        1.82939401
 C            2.89608849       -2.64008499        1.27151191
 C            0.64223812       -2.48566661        2.23170815
 C            1.50894357       -3.08285090        1.32559538
 C           -1.34887879       -1.12169672        2.61259808
 C           -0.56292527       -1.92413658        1.76777202
 C           -2.41696630       -0.38651868        2.08180905
 C           -1.85727474        1.45377068        3.57873755
 C           -2.83700671        0.74839262        2.78715544
 C           -0.21339636        2.41580574        2.05494895
 C           -1.43494146        2.54143421        2.72122504
 C           -0.16731695        2.54935446        0.65577841
 C            2.04746889        1.56755285        0.65284901
 C            0.95248492        2.07788327       -0.04882771
 C            3.84207974       -0.10370928        0.48299060
 C            3.12484017        1.03838527       -0.05401880
 C            3.22397930       -2.40221217       -0.12314757
 C            3.74230686       -1.17488695       -0.49871245
 C            1.07001344       -3.32543290       -0.02545513
 C            2.16740002       -2.99338143       -0.92172838
 C           -0.96143689       -2.12652723        0.43661860
 C           -0.21829906       -2.97417017       -0.39902332
 C           -2.77668482       -0.54845629        0.73677700
 C           -2.02443847       -1.38243795       -0.09029222
 C           -3.72147136        0.29788977        0.14711224
 C           -3.55732895        1.80237937        2.10874667
 C           -2.62062488        2.91626183        1.98603738
 C           -4.09276274        1.53446086        0.79943917
 C           -1.25634359        3.10637051       -0.04000855
 C           -2.49715833        3.21587288        0.58317852
 C           -3.64673496        2.61185282       -0.06297326
 C           -1.25428700        3.10292015       -1.43113477
 C            0.99742050        2.14466892       -1.45131298
 C           -0.06129299        2.70817248       -2.14844616
 C            3.00179961        0.82389250       -1.47853131
 C            3.29432495       -0.57754708       -1.74057856
 C            1.95314725        1.41440946       -2.16437343
 C            1.85116997       -2.47555997       -2.17505702
 C            2.45674014       -1.27952399       -2.60656862
 C           -0.49719227       -3.01775609       -1.76054968
 C            0.61097230       -2.85383943       -2.68884445
 C           -2.24490781       -1.34629454       -1.47043802
 C           -1.61790152       -2.27175908       -2.28676012
 C           -3.60139300        0.60811030       -1.26659875
 C           -3.45836246        2.05336599       -1.38438659
 C           -2.40101449        2.53758452       -2.13589956
 C           -2.79507256       -0.20459193       -2.05121713
 C           -0.49583504        2.09487733       -3.39215611
 C           -1.87580644        1.69641291       -3.18977913
 C           -2.19132763        0.34012869       -3.18816422
 C            1.62095984        0.87454025       -3.40659636
 C            1.88292564       -0.53768628       -3.63955335
 C            0.35455843        1.20935542       -4.03487764
 C            0.09859658       -2.24225939       -3.89486435
 C           -1.28998375       -1.88546567       -3.64808819
 C           -1.47258785       -0.49848325       -4.03362797
 C            0.77763466       -1.07696190       -4.40548745
 C           -0.20767713       -0.02119889       -4.56939005
