   70
C70 / DATE: 7/ 1/2024 / Origin: Program Fullerene / C70 from database
 C            1.58311826        0.09710131        4.64629927
 C            0.75555356       -1.09333963        4.67629415
 C            1.34495376       -2.07652159        3.78510653
 C            2.62798417       -0.11231114        3.65839649
 C            2.50439897       -1.46097038        3.15112450
 C            2.56974093        0.97753672        2.70774559
 C            0.75310958        1.19267603        4.18018571
 C            1.43025104        1.80558782        3.06035784
 C           -0.61551136       -0.68740007        4.43858647
 C           -0.58763640        0.68822853        3.96422040
 C           -1.45288056       -1.58639851        3.80361497
 C            0.49946159       -2.87824503        3.01812264
 C           -0.87961678       -2.79664649        3.22634192
 C            0.99282388       -3.41948487        1.82906819
 C            2.72074469       -1.68587001        1.79746838
 C            2.19517935       -2.84975579        1.24578840
 C            2.78197150        0.70430245        1.35643011
 C            3.04649532       -0.61187329        0.95721226
 C            2.30038908        1.62361219        0.41435575
 C            0.67071258        2.30118971        2.01623456
 C            1.33215952        2.54327514        0.82469909
 C           -1.23849959        1.02317021        2.77483756
 C           -0.70152790        2.02523408        1.96032792
 C           -2.41434136       -1.08045943        2.84400565
 C           -2.19890343        0.16051730        2.24480398
 C           -1.79450068       -3.24460501        2.19115677
 C           -2.78989712       -2.20064572        2.00979402
 C            0.09309618       -3.75703158        0.73117114
 C           -1.27028403       -3.59265488        0.88361557
 C            2.09609669       -2.98678423       -0.19524658
 C            0.72040768       -3.33120356       -0.50688762
 C            3.29022697       -0.86360464       -0.38821466
 C            2.74227273       -2.06704617       -0.99771214
 C            2.52977949        1.40451719       -0.94941106
 C            3.13146605        0.21414357       -1.35094240
 C            1.90374746        2.20745357       -1.91066926
 C            0.66879034        3.31199004       -0.10998980
 C            1.05081504        3.22798062       -1.50165740
 C           -1.41307504        2.44168428        0.82949179
 C           -0.77952173        3.33185661       -0.04220075
 C           -2.69160565        0.40099823        0.95854857
 C           -2.47499591        1.65329509        0.36912301
 C           -2.93118665       -1.96972025        0.59303739
 C           -2.00622757       -2.83332422       -0.11307656
 C           -3.05089203       -0.67325862        0.13217319
 C            0.01008678       -2.55565460       -1.42743578
 C           -1.35358609       -2.31261170       -1.23586329
 C            2.10122406       -1.65934990       -2.23109044
 C            2.71623895       -0.40138490       -2.59868133
 C            0.71867233       -1.80544395       -2.37155753
 C            1.87855758        1.78676991       -3.24090165
 C            2.07148900        0.38029225       -3.53511255
 C            0.81404742        2.24219303       -4.12338878
 C           -0.12865979        3.55804707       -2.28769864
 C           -1.27938411        3.53205893       -1.38929577
 C           -0.23751575        3.08836931       -3.59145592
 C           -3.02024008        1.88600416       -0.89899032
 C           -2.45259325        2.90171863       -1.76920916
 C           -2.93462990       -0.49820529       -1.23288128
 C           -1.94852632       -1.23618142       -1.90139794
 C           -3.31856758        0.73307147       -1.72520293
 C            0.03782131       -0.94998149       -3.24356661
 C            0.79867906       -0.08999660       -4.04234172
 C            0.18404111        1.05376435       -4.68440692
 C           -1.32425338       -0.69864547       -3.03028443
 C           -1.50220249        2.55343343       -4.06364079
 C           -2.61870539        2.45360824       -3.14219871
 C           -3.01881725        1.05784708       -3.09964323
 C           -1.24541734        1.21812953       -4.58289833
 C           -1.99240153        0.28495234       -3.76458750
