   70
C70 / DATE: 7/ 1/2024 / Origin: Program Fullerene / C70 from database
 C            1.40427849       -0.08711020        4.17352854
 C            2.51142578       -0.28339015        3.26065303
 C            2.28237850       -1.52903492        2.54179173
 C            0.59694999       -1.29117896        4.14342431
 C            1.06538397       -2.11854130        3.04282478
 C           -0.79577642       -0.88755925        4.14479842
 C            0.52412024        1.04289596        3.96039016
 C           -0.82372235        0.52225342        3.78776473
 C            0.96131676        2.07109124        3.14214460
 C            3.00710296        0.79963017        2.54380277
 C            2.29259089        2.00554242        2.54904511
 C            3.82554130        0.50306976        1.45996447
 C            2.55519353       -1.56223237        1.18243982
 C            3.58999352       -0.74644400        0.74998537
 C            1.53620561       -1.91406098        0.28513302
 C            0.12468139       -2.61310198        2.15124985
 C            0.33060027       -2.45683572        0.76789179
 C           -1.69892214       -1.73214289        3.52357775
 C           -1.16882320       -2.76118306        2.64273379
 C           -2.81641130       -1.14569239        2.81262743
 C           -1.59929483        0.93256312        2.70038256
 C           -2.69764137        0.15249392        2.31773909
 C            0.06105226        2.60268455        2.13454542
 C           -1.13180789        1.94480790        1.85152357
 C            2.26225434        2.84966799        1.35956115
 C            0.86840559        3.08586217        1.02828463
 C            4.10326945        1.52814340        0.47521923
 C            3.16862605        2.62554507        0.33676254
 C            3.76763153       -0.50132092       -0.65997797
 C            4.21485248        0.87400625       -0.81402055
 C            1.68539706       -1.64595815       -1.08856080
 C            2.83618261       -0.99031248       -1.56425059
 C            0.65515199       -1.98849172       -1.97740758
 C           -0.68895987       -2.79298318       -0.13560575
 C           -0.56020558       -2.45707766       -1.48198151
 C           -2.23101227       -3.13847630        1.74453663
 C           -3.32140553       -2.19283592        1.94373919
 C           -1.94862791       -3.17568479        0.33089258
 C           -3.83069752       -1.83234965        0.63500618
 C           -3.13205917       -2.66253549       -0.33337181
 C           -3.45751049        0.52956349        1.21138451
 C           -4.04520480       -0.49015921        0.34928069
 C           -1.71120228        2.12162676        0.59627348
 C           -2.97774344        1.60178350        0.36195490
 C            0.41649507        2.87143562       -0.27002865
 C           -0.93331826        2.58716787       -0.46962068
 C            2.70025922        2.63124672       -1.04096910
 C            3.53481551        1.70415822       -1.78920794
 C            1.33132862        2.68649940       -1.31530979
 C            2.81323813       -0.37802286       -2.81374085
 C            2.97617282        1.06576557       -2.88250004
 C            0.71074042       -1.58406314       -3.31314844
 C            1.78641609       -0.73414015       -3.76040655
 C           -0.49363056       -1.08347624       -3.94872820
 C           -1.70739187       -2.35371712       -2.27404349
 C           -3.00253314       -2.22235318       -1.63873536
 C           -1.71254911       -1.45031158       -3.40634527
 C           -3.93862333       -0.02933083       -1.02572503
 C           -3.40694424        1.32400100       -0.99752981
 C           -3.52332523       -0.91516779       -2.01508266
 C           -2.71372942       -0.43063737       -3.12445800
 C           -1.42317571        2.53213311       -1.76818191
 C           -2.63574458        1.78552775       -2.05425245
 C           -2.36208797        0.91419726       -3.18600968
 C            0.87632890        2.29139541       -2.57949552
 C            1.73031756        1.57539907       -3.41755060
 C            1.18889902        0.50647077       -4.23655192
 C           -0.24737815        0.31220030       -4.27512644
 C           -0.49036485        2.30531152       -2.85434620
 C           -1.06777314        1.29177323       -3.73058666
