   70
C70 / DATE: 7/ 1/2024 / Origin: Program Fullerene / C70 from database
 C            1.66663779       -0.00911412        4.57811904
 C            0.81650055       -1.15794467        4.33585149
 C            1.36864497       -1.89837547        3.21496972
 C            2.65954343        0.03439229        3.51837216
 C            2.43280154       -1.09128009        2.64356661
 C            2.62311416        1.35485117        2.93923684
 C            0.84071959        1.17878893        4.45124801
 C            1.52543938        2.08564025        3.55932921
 C           -0.55044141       -0.68526402        4.23165406
 C           -0.49309385        0.76077632        4.08218875
 C           -1.41142287       -1.40005396        3.41775268
 C            0.48526449       -2.53208195        2.34604464
 C           -0.87232573       -2.50857065        2.64557169
 C            0.85434623       -2.68950369        1.01229615
 C            2.43730763       -0.89211519        1.26878147
 C            1.84553549       -1.86243362        0.47237456
 C            2.80259880        1.50243764        1.56545542
 C            2.66341270        0.38146960        0.72641202
 C            2.51926711        2.76392940        1.05440878
 C            0.77338113        2.91089530        2.73316461
 C            1.49453057        3.54284226        1.72811099
 C           -1.08403415        1.36426702        2.97289144
 C           -0.57405831        2.57792977        2.49665049
 C           -2.29222290       -0.67227029        2.52314466
 C           -1.99442082        0.64249108        2.19196954
 C           -1.82032565       -2.76587037        1.58053464
 C           -2.67401639       -1.59122410        1.46814315
 C            0.00016023       -3.37904733        0.15067471
 C           -1.38083034       -3.35395299        0.40184567
 C            0.47630427       -3.68213018       -1.12422067
 C            2.01320402       -1.79537151       -0.90442395
 C            1.52082233       -2.84078089       -1.68244618
 C            2.52111386        0.55459033       -0.65998202
 C            2.33894916       -0.56609456       -1.48396284
 C            2.33569764        2.94023007       -0.36842853
 C            2.26131143        1.82461186       -1.18703567
 C            0.80478593        4.34140258        0.74140759
 C            1.35604137        3.99844171       -0.55867276
 C           -1.29283814        3.24265552        1.50197178
 C           -0.63317150        4.22807993        0.66463612
 C           -2.37431713        1.12434114        0.93902977
 C           -2.18642874        2.47022284        0.65462738
 C           -2.95261088       -1.10292875        0.19366453
 C           -2.62607556        0.22597500       -0.10617330
 C           -2.26525422       -3.27468831       -0.66817109
 C           -3.01561440       -2.04061283       -0.83274389
 C           -0.45496354       -4.00579531       -2.18960461
 C           -1.85739341       -3.73564957       -1.97634205
 C            1.22792608       -2.63162482       -3.08929870
 C           -0.03931867       -3.28683319       -3.38133322
 C            2.13271881       -0.36616626       -2.85027452
 C            1.48829300       -1.39333516       -3.65405303
 C            1.51266640        1.92883697       -2.35420457
 C            1.63167015        0.92097530       -3.29689120
 C            0.24764820        3.75361300       -1.46365175
 C           -0.98269010        3.94464426       -0.71647447
 C           -1.96082268        2.87006100       -0.72198160
 C            0.32508439        2.66085573       -2.31687340
 C           -2.37332111        0.61433157       -1.43217130
 C           -1.85137078        1.88182442       -1.69313448
 C           -0.85904974        2.01388081       -2.66325988
 C           -2.84705139       -1.61481785       -2.20544260
 C           -2.27714942       -2.73298646       -2.94192189
 C           -1.16577426       -2.48614372       -3.84120302
 C           -2.38782110       -0.33055824       -2.46082929
 C            0.44458973       -0.75164978       -4.43583773
 C            0.49602032        0.67113836       -4.16350655
 C           -0.81267693        1.09217231       -3.69886081
 C           -0.93028767       -1.18498777       -4.26181421
 C           -1.65085909       -0.09133804       -3.62087458
