   70
C70 / DATE: 7/ 1/2024 / Origin: Program Fullerene / C70 from database
 C            1.18646915       -0.03405910        4.23996248
 C            2.46019757       -0.35070576        3.63820322
 C            2.44649894       -1.76231949        3.29549718
 C            0.36744467       -1.23714356        4.20762605
 C            1.08194659       -2.23727346        3.44817334
 C           -0.95334038       -0.85248019        3.76653855
 C            0.39791233        1.04107059        3.67142728
 C           -0.97889565        0.59818433        3.65538043
 C            0.86656703        1.75724110        2.57608485
 C            2.86736411        0.37905665        2.45590921
 C            2.09764350        1.43725301        1.97884310
 C            3.09104139       -1.91216151        2.00255668
 C            3.37728392       -0.57948363        1.49481879
 C            2.59116641       -2.86262885        1.12885120
 C            0.46119662       -2.84476016        2.35949608
 C            1.27553008       -3.42846431        1.38810095
 C           -1.59847521       -1.60221651        2.78965175
 C           -0.88651001       -2.57613557        2.07039618
 C           -2.75585917       -1.05068943        2.24510436
 C           -1.85452991        1.17310307        2.74018449
 C           -2.91830850        0.39436021        2.29013747
 C           -0.04855970        2.53937985        1.87117936
 C           -1.41799606        2.24739830        1.95566402
 C            0.43112704        3.37048468        0.86400503
 C            2.36047034        1.89487722        0.68798657
 C            1.69584340        3.03202463        0.24301508
 C            3.20443515       -0.29734112        0.14199104
 C            2.95694612        1.02336586       -0.23103106
 C            2.67493539       -2.61599940       -0.29726309
 C            2.92847678       -1.32798909       -0.76526908
 C            0.71696442       -3.83978621        0.11224187
 C            1.63676270       -3.40818689       -0.93046395
 C           -1.48243187       -3.18403684        0.96383999
 C           -0.65147273       -3.74511819       -0.08795554
 C           -3.26382770       -1.51429486        0.96525228
 C           -2.62066724       -2.55352131        0.32003593
 C           -3.65584959        0.79433970        1.10600920
 C           -3.66096517       -0.34429146        0.19937175
 C           -2.31463434        2.83493972        1.06121502
 C           -3.45255389        2.06280787        0.58636753
 C           -0.46160635        3.85362075       -0.17389011
 C           -1.82234419        3.63079835       -0.05197458
 C            1.58530373        3.30369569       -1.17922241
 C            0.19540943        3.64340835       -1.45900719
 C            3.00170138        1.34857462       -1.58135773
 C            2.29300779        2.51858860       -2.07366540
 C            2.61061998       -1.01243196       -2.08981546
 C            2.84235449        0.28088361       -2.55117868
 C            1.14515164       -2.99773731       -2.16054547
 C            1.74401696       -1.84160688       -2.80729575
 C           -1.16791051       -3.27218919       -1.36443977
 C           -2.30176003       -2.40968437       -1.08905562
 C           -0.29260134       -2.92629312       -2.38177336
 C           -3.21071574       -0.18207942       -1.11195975
 C           -2.38327331       -1.15051004       -1.68458059
 C           -3.52825860        2.23171460       -0.85218796
 C           -2.57304737        3.25629105       -1.23316295
 C           -3.30680481        1.07226781       -1.70060981
 C           -0.48715888        3.02427206       -2.51352939
 C           -1.85221694        2.77875360       -2.39777504
 C           -2.35098244        1.44983521       -2.72165305
 C            1.66586324        2.16235839       -3.32928616
 C            2.03878428        0.79465587       -3.64684418
 C            0.22387005        2.27290734       -3.44509269
 C            0.71906088       -1.25278821       -3.65552362
 C           -0.55904550       -1.73160877       -3.16474352
 C           -1.51206001       -0.81076578       -2.72985803
 C           -1.45727356        0.50312818       -3.20867111
 C            0.83674765        0.07584271       -4.02653691
 C           -0.29417844        0.96729837       -3.82389933
