   70
C70 / DATE: 7/ 1/2024 / Origin: Program Fullerene / C70 from database
 C            1.17996795       -0.15811987        4.66765041
 C            2.41350679       -0.46764651        3.98390739
 C            2.27563683       -1.79629274        3.40192759
 C            0.33063951       -1.33557814        4.58306928
 C            0.88707781       -2.18393473        3.54909025
 C           -1.03017614       -0.87171334        4.43697999
 C            0.39247276        0.96321150        4.19804588
 C           -0.99016853        0.58180813        4.37668435
 C            0.74882433        1.61706770        3.01870055
 C            2.85441491        0.40832909        2.91856697
 C            2.02363559        1.43169041        2.45715206
 C            2.84328509       -1.73959352        2.06366826
 C            3.49695093       -0.44886851        1.94546569
 C            2.09417993       -2.21161098        0.98622500
 C            0.15154589       -2.44696245        2.39615625
 C            0.83997818       -2.77839441        1.22867699
 C           -1.80028758       -1.32240346        3.29424649
 C           -1.21196451       -2.12211928        2.32152617
 C           -1.94457033        0.99711974        3.37096666
 C           -2.59676124       -0.19837515        2.85698164
 C           -0.23339177        2.31446757        2.30491837
 C           -1.58854630        1.98641651        2.46154460
 C            0.15935424        3.15158670        1.26605714
 C            2.32824112        2.01879444        1.22503723
 C            1.48491080        2.98902798        0.69928807
 C            3.71323634        0.05945683        0.67883462
 C            3.26193127        1.41021985        0.38789213
 C            2.41813647       -1.77681545       -0.30462821
 C            3.34389771       -0.75384515       -0.46521689
 C            1.61110425       -2.13927377       -1.38373079
 C            0.12248201       -3.30489458        0.16618645
 C            0.61129889       -3.08602921       -1.17998503
 C           -1.86827147       -2.24851918        1.09730746
 C           -1.31199204       -3.09748054        0.14475053
 C           -3.05646666       -0.17820240        1.54405041
 C           -2.80982827       -1.27971392        0.71552287
 C           -2.46805062        2.19164760        1.40318273
 C           -3.27778483        1.06932878        0.96263652
 C           -0.76111038        3.43872415        0.17828592
 C           -2.04335869        2.92562865        0.22535868
 C            1.38220314        3.15459589       -0.74510362
 C           -0.01925530        3.37362339       -1.06636265
 C            3.10108256        1.49895372       -1.05473346
 C            3.20360228        0.14599905       -1.58867570
 C            2.16134653        2.37293225       -1.59897107
 C            1.62769503       -1.38816734       -2.56862413
 C            2.38627309       -0.20975615       -2.65141411
 C            0.74221811       -1.72286511       -3.59701555
 C           -0.53512305       -3.13255431       -2.06941843
 C           -1.72936946       -3.02214136       -1.24390961
 C           -0.46656079       -2.46305344       -3.28152795
 C           -3.29652557       -1.25500195       -0.59184402
 C           -2.73723809       -2.14049174       -1.60030993
 C           -3.45074574        1.18148228       -0.47434364
 C           -2.58168074        2.24867675       -0.94364178
 C           -3.56137237        0.02589219       -1.22711588
 C           -0.56053866        2.73556104       -2.17835429
 C           -1.77254313        2.03747601       -2.06046536
 C            1.69352394        2.11901759       -2.88851306
 C            1.97115001        0.82451897       -3.48419806
 C            0.31293597        2.43801797       -3.21537000
 C            0.37585633       -0.72958600       -4.58794297
 C            0.96527735        0.58698143       -4.49780698
 C           -0.10843468        1.54401824       -4.27302508
 C           -1.59792635       -1.66228015       -3.72832351
 C           -2.63633784       -1.39392192       -2.84471855
 C           -2.96722198       -0.00903235       -2.54972442
 C           -2.09669693        1.00361775       -2.95199364
 C           -1.06699016       -0.56736154       -4.52316851
 C           -1.33258375        0.79671047       -4.09636469
