   70
C70 / DATE: 7/ 1/2024 / Origin: Program Fullerene / C70 from database
 C            1.60663664        0.03146997        4.50241506
 C            0.79325248       -1.16034789        4.36550724
 C            1.36619057       -1.98243689        3.31293966
 C            2.64098211       -0.02200874        3.48478270
 C            2.48606779       -1.25343571        2.74323326
 C            2.59311563        1.21792008        2.74604700
 C            0.75992373        1.17466110        4.20665782
 C            1.41246163        1.94455558        3.17392182
 C           -0.58712860       -0.73905756        4.23004798
 C           -0.57818302        0.68923443        3.94849072
 C           -1.43622106       -1.55012927        3.49584660
 C            0.50384729       -2.65484180        2.45074004
 C           -0.86501911       -2.64825323        2.73078285
 C            0.93034637       -2.93475361        1.15024401
 C            2.61120509       -1.21868315        1.36062998
 C            2.02374318       -2.23932751        0.62173405
 C            2.86002941        1.19834994        1.38315791
 C            2.98787560       -0.03001591        0.71585967
 C            2.46729468        2.31041307        0.64880628
 C            0.64275684        2.53490737        2.18163094
 C            1.31719095        2.99945685        1.05933941
 C           -1.26552956        1.16541656        2.83233694
 C           -0.71565394        2.20117727        2.05565232
 C           -2.43902186       -0.93064544        2.64968860
 C           -2.34457962        0.42462030        2.34544816
 C           -1.81696228       -2.97609118        1.68158310
 C           -2.75792606       -1.87168219        1.58575534
 C            0.07954530       -3.64405462        0.30371992
 C           -1.35411975       -3.56644004        0.51963789
 C            0.30857473       -3.64570694       -1.13145774
 C            2.34662367       -2.35126570       -0.72266057
 C            1.44032851       -3.02479127       -1.63680022
 C            3.17214228       -0.03436145       -0.67726712
 C            2.89823833       -1.19480776       -1.40287689
 C            2.92780135        2.40747617       -0.65573655
 C            3.20858569        1.17858882       -1.37055805
 C            2.31122037        3.33635646       -1.58137035
 C            0.60640368        3.79122468        0.17066368
 C            1.12261018        4.04122748       -1.16015649
 C           -1.45037170        2.72941235        0.98204208
 C           -0.82231406        3.57807484        0.06676708
 C           -3.06876237        0.90112605        1.26349720
 C           -2.62928549        2.10393419        0.58568793
 C           -3.12706759       -1.37465151        0.33696524
 C           -3.52794209       -0.04196771        0.25392017
 C           -1.96310846       -3.20124821       -0.74553214
 C           -0.97746457       -3.45540317       -1.78553088
 C           -2.78054353       -2.07290275       -0.82586136
 C           -1.05122351       -2.74754926       -2.97854472
 C            1.35173488       -2.22766460       -2.85024627
 C            2.22525379       -1.07809670       -2.68743546
 C            0.12888016       -2.06458100       -3.48785021
 C            2.54762896        1.26986735       -2.66552981
 C            1.98632517        2.60033289       -2.79163310
 C            1.80895375        0.17979911       -3.10779207
 C            0.06390790        3.73325793       -2.10700787
 C           -1.13683291        3.44216035       -1.34924281
 C            0.56129687        2.72224193       -3.01652763
 C           -2.89490495        1.93458196       -0.83510281
 C           -3.53249863        0.64271145       -1.02643118
 C           -1.94973162        2.38863993       -1.74823679
 C           -3.02635163       -1.50434675       -2.07508708
 C           -2.19521605       -1.88326788       -3.20564284
 C           -3.27009428       -0.07708901       -2.17937010
 C           -0.27140262       -0.73258672       -3.90905302
 C            0.47696036        0.36585395       -3.49678653
 C           -0.18237835        1.56171184       -3.18860437
 C           -1.51824388        1.53487882       -2.77040898
 C           -1.71801159       -0.66165059       -3.83392943
 C           -2.32184117        0.46050261       -3.13990922
