   70
C70 / DATE: 7/ 1/2024 / Origin: Program Fullerene / C70 from database
 C            1.05627463       -0.08365229        4.74295722
 C            2.33305314       -0.40779512        4.14617092
 C            2.27618376       -1.79113741        3.70441150
 C            0.23029692       -1.28178391        4.68530426
 C            0.89044277       -2.21291355        3.79552615
 C           -1.11487409       -0.86493573        4.37172366
 C            0.27756912        0.99998922        4.17161580
 C           -1.10236339        0.58587799        4.26970112
 C            0.71109830        1.62260577        2.99680147
 C            2.78505864        0.38089342        3.02194783
 C            2.04969265        1.48431705        2.59846471
 C            2.94082592       -1.87799947        2.41358827
 C            3.30046641       -0.52830380        2.01135449
 C            2.41017848       -2.73023806        1.46270230
 C            0.25476377       -2.65436702        2.63427044
 C            1.05574313       -3.22988748        1.65411374
 C           -1.73835768       -1.37188360        3.16360168
 C           -1.00994394       -2.15714231        2.27610830
 C           -1.98791135        0.94179405        3.19088982
 C           -2.53044124       -0.28599488        2.62999454
 C           -0.23565049        2.19197624        2.11968918
 C           -1.60527599        1.93432301        2.30154801
 C            0.20004112        2.88270769        0.97653292
 C            2.46269182        2.06945868        1.41330954
 C            1.56130651        2.94234393        0.69935450
 C            3.20758142       -0.13902753        0.67291588
 C            3.12004962        1.22432645        0.42510287
 C            2.53089664       -2.37145295        0.06370928
 C            2.72846857       -1.04072885       -0.28819851
 C            0.50427132       -3.48683487        0.34260374
 C            1.52273501       -3.13712071       -0.63576991
 C           -1.44288702       -2.23669188        0.94683758
 C           -0.81085607       -3.13060423        0.07571582
 C           -2.85812997       -0.28127489        1.27808682
 C           -2.34196674       -1.27838196        0.44395517
 C           -2.46784922        2.12452720        1.23519176
 C           -3.16211763        0.95522212        0.71842934
 C           -0.70897167        3.26345032       -0.01899776
 C           -2.04900964        2.92086002        0.10751836
 C           -0.23740858        3.67035580       -1.26853640
 C            2.00783898        2.94023052       -0.68082129
 C            2.72169501        1.69286418       -0.88330289
 C            1.12528141        3.35329654       -1.65768907
 C            2.18119108       -0.57619351       -1.49398662
 C            2.24223060        0.78578293       -1.82074775
 C            1.08972851       -2.70997455       -1.87961007
 C            1.55135843       -1.47904107       -2.36444048
 C           -1.21202581       -3.18967517       -1.25472756
 C           -0.16993997       -3.15629412       -2.26504851
 C           -2.58271159       -1.20810065       -0.93089359
 C           -2.25664509       -2.30144339       -1.71695483
 C           -3.24354916        1.09246718       -0.72283320
 C           -2.78139290        2.42914266       -1.04983015
 C           -2.86953635        0.02531718       -1.52998437
 C           -1.07328532        3.47027752       -2.44248721
 C           -2.27860060        2.67197085       -2.31690446
 C            1.04893816        2.58830999       -2.88974625
 C            1.53302467        1.27872356       -2.91928050
 C           -0.24540904        2.87167986       -3.47738614
 C            1.11991076       -1.03432652       -3.61397306
 C            1.02738104        0.39178236       -3.86562701
 C           -0.76026765       -2.66472761       -3.48863671
 C           -2.06621163       -2.11987223       -3.14346151
 C           -0.03845625       -1.65660695       -4.23320449
 C           -2.51853526        0.27290394       -2.86413527
 C           -2.17954578        1.56951003       -3.26015438
 C           -0.98341024        1.77446100       -4.06685325
 C           -0.27197705        0.65744435       -4.47888520
 C           -2.13989790       -0.78175777       -3.68953313
 C           -0.98285606       -0.60302755       -4.54910748
