   70
C70 / DATE: 7/ 1/2024 / Origin: Program Fullerene / C70 from database
 C            1.37943595       -0.29492167        5.56342607
 C            0.55524158       -1.45375683        5.27424216
 C            1.22281809       -2.23310544        4.24545605
 C            2.56591653       -0.37827188        4.73009147
 C            2.40443803       -1.50535540        3.82805424
 C            2.77078916        0.93212245        4.15843970
 C            0.64649320        0.88962585        5.14394045
 C            1.56491904        1.71697260        4.39978531
 C           -0.68686933       -0.97587047        4.69847061
 C           -0.57058294        0.45376900        4.48774462
 C            0.23353300       -2.55672895        3.23098962
 C           -0.96612173       -1.79888902        3.54012865
 C            0.63503645       -2.59951971        1.89526540
 C            2.60545781       -1.33239379        2.45971053
 C            1.93314758       -2.18846628        1.58286629
 C            3.05685638        1.02482061        2.74184587
 C            3.13521589       -0.12929335        1.96469477
 C            1.13736198        2.24607231        3.11803889
 C            2.26713912        2.12075971        2.22658535
 C           -0.90429376        0.95006662        3.22575157
 C           -0.12430248        1.93934632        2.61056930
 C           -1.62163523       -1.21594755        2.46929170
 C           -1.73677435        0.17385677        2.42251469
 C           -0.35558739       -2.49445002        0.90996049
 C           -1.56237411       -1.88155873        1.25407948
 C            0.00993345       -2.57606231       -0.43853356
 C            2.33392682       -2.20768236        0.25688435
 C            1.36142909       -2.54302098       -0.76839938
 C            3.18667177        0.05040276        0.58000948
 C            3.09989725       -1.07938703       -0.22873258
 C            2.01543370        2.12299984        0.86785016
 C            2.78785319        1.29038150        0.06620796
 C           -0.35593704        2.21669821        1.25796710
 C            0.73715648        2.46115637        0.42227981
 C           -2.22967394        0.72435519        1.24709057
 C           -1.55648059        1.80830133        0.68281089
 C           -2.39215648       -1.41820254        0.24478091
 C           -2.90697253       -0.13037268        0.38992459
 C           -0.93681228       -2.29487363       -1.42984144
 C           -2.22551730       -1.93417158       -1.03368829
 C           -0.49923271       -1.98441655       -2.72367773
 C            1.77523060       -1.88261117       -1.99359435
 C            2.82409292       -0.93633190       -1.64740766
 C            0.80086414       -1.51533079       -2.91423330
 C            2.69825785        1.47821128       -1.30496040
 C            2.78542615        0.33344407       -2.19544509
 C            0.53682650        2.57238935       -0.95468238
 C            1.62176006        2.31990763       -1.79484223
 C           -1.82219717        2.14051932       -0.65071292
 C           -0.75932981        2.52417453       -1.47757210
 C           -3.57550929        0.44497887       -0.67652303
 C           -3.00794025        1.66469698       -1.21759859
 C           -3.18217639       -1.61615566       -1.99166721
 C           -3.95083621       -0.40467652       -1.78858302
 C           -1.42977698       -1.82265662       -3.74376513
 C           -2.82779355       -1.67984323       -3.39533471
 C           -1.14435736       -0.86522160       -4.79391933
 C            1.02439356       -0.41080234       -3.74471543
 C            1.89656464        0.58726502       -3.31608185
 C            1.39019557        1.94345960       -3.17271633
 C            0.05473520       -0.05670687       -4.67971955
 C           -0.93584527        2.60092340       -2.86362835
 C            0.16849858        2.25025518       -3.74584751
 C           -0.34888967        1.33879771       -4.75014969
 C           -3.17628801        1.62895273       -2.66087912
 C           -3.86351798        0.38876764       -2.99908596
 C           -3.32920462       -0.47307794       -4.03794887
 C           -2.28246668        0.03631183       -4.89980081
 C           -2.15910806        2.10694940       -3.47439840
 C           -1.79638581        1.38842146       -4.68906282
