   70
C70 / DATE: 7/ 1/2024 / Origin: Program Fullerene / C70 from database
 C            1.70721497       -0.09066007        4.48921730
 C            0.85489152       -1.24412383        4.27614063
 C            1.34358696       -1.95790887        3.10932086
 C            2.67587426       -0.05156566        3.40737497
 C            2.45805056       -1.20144113        2.56281009
 C            2.60139642        1.25181130        2.79379180
 C            0.87451353        1.09450965        4.37839586
 C            1.47192464        1.95837159        3.38567686
 C           -0.51967402       -0.78460162        4.27206346
 C           -0.49312246        0.66739383        4.17257294
 C           -1.42998376       -1.48230201        3.49536303
 C            0.41745407       -2.50912748        2.22567206
 C           -0.93516741       -2.48408152        2.56108691
 C            0.76971351       -2.65446603        0.88423587
 C            2.52507937       -1.04191969        1.18559708
 C            1.89966983       -1.99157689        0.39519569
 C            2.79185598        1.36359071        1.41941316
 C            2.82304701        0.20563775        0.62305609
 C            2.38994819        2.55752888        0.84251995
 C            0.64380335        2.68764774        2.53957542
 C            1.24052646        3.24162933        1.41079566
 C           -1.24899859        1.29358208        3.18280621
 C           -0.73302099        2.42234005        2.52267926
 C           -2.47646711       -0.74600912        2.81068107
 C           -2.37589638        0.63355234        2.67780562
 C           -1.92874577       -2.62068367        1.50922939
 C           -2.89086794       -1.53603668        1.66232604
 C           -0.16211960       -3.17677493       -0.01458004
 C           -1.52425937       -2.98566210        0.23177689
 C            0.26620994       -3.49649780       -1.30077955
 C            2.16791839       -2.00643071       -0.96498951
 C            1.55769277       -2.99592700       -1.73138895
 C            2.82161826        0.31989331       -0.77853930
 C            2.66696733       -0.84000497       -1.55948287
 C            2.30502986        2.65820765       -0.59338502
 C            2.68491650        1.58334196       -1.37870202
 C            0.42294086        3.73594924        0.31572688
 C            1.06075609        3.33123293       -0.92584897
 C           -1.54134977        3.12406131        1.62998140
 C           -0.95573583        3.66792301        0.41700899
 C           -3.17657614        1.25176654        1.72739771
 C           -2.83520936        2.58193054        1.27142273
 C           -3.38763774       -0.89157922        0.52773125
 C           -3.62025438        0.48436148        0.57290870
 C           -2.37073059       -2.67069389       -0.82499575
 C           -3.22285407       -1.49923300       -0.71643190
 C           -0.65189385       -3.33777657       -2.41869945
 C           -1.87114769       -2.72383525       -2.18481767
 C            1.52321557       -2.88887874       -3.17335737
 C            0.12397731       -2.89899889       -3.56471797
 C            2.77972488       -0.75058732       -2.94892681
 C            2.13930314       -1.73879169       -3.79493160
 C            2.30160316        1.65918630       -2.71125089
 C            2.52366741        0.52485300       -3.57393844
 C            0.29415659        2.81562503       -1.96952989
 C            0.97612572        2.18520579       -3.00154270
 C           -1.70978609        3.14010566       -0.70729421
 C           -2.93996791        2.59844647       -0.18065145
 C           -3.35006107        1.28398915       -0.61238995
 C           -1.03185836        2.45819318       -1.71577826
 C           -2.95701161       -0.66667400       -1.88007539
 C           -2.12925212       -1.42510938       -2.79332176
 C           -2.71108225        0.68292833       -1.68893545
 C           -1.53886799        1.24402842       -2.21811757
 C           -0.16565315       -1.59491480       -4.13038802
 C            1.10493207       -1.04525221       -4.55071367
 C            1.32946951        0.37047968       -4.39008157
 C            0.29045293        1.17447674       -3.77562199
 C           -1.11044625       -0.78725563       -3.49245882
 C           -0.83352931        0.56360142       -3.22269306
