   70
C70 / DATE: 7/ 1/2024 / Origin: Program Fullerene / C70 from database
 C            0.89296148       -0.03510437        5.04384624
 C            2.20765753       -0.30986114        4.49226556
 C            2.18664820       -1.66445557        3.96818620
 C            0.07398980       -1.22035695        4.83832028
 C            0.80319057       -2.10531570        3.95295747
 C           -1.24304959       -0.78297367        4.44587330
 C            0.14059344        1.10750424        4.55371876
 C           -1.22474482        0.66973564        4.34190667
 C            0.71759356        1.97148389        3.63177084
 C            2.73335234        0.55338001        3.45049663
 C            2.06390917        1.72360864        3.12571779
 C            2.92293547       -1.67190106        2.71855073
 C            3.23995259       -0.29140439        2.38081910
 C            2.47759890       -2.50940066        1.70840859
 C            0.24482159       -2.51431076        2.73811003
 C            1.10821771       -3.00242792        1.76129112
 C           -1.80230676       -1.28856641        3.21077664
 C           -1.05969201       -2.13426378        2.38053037
 C           -1.90493965        1.02678743        3.10450599
 C           -2.51494774       -0.18423934        2.60033986
 C           -0.08178612        2.48606374        2.52758646
 C           -1.29583014        1.88730544        2.19460375
 C            2.10805363        2.20094636        1.75754234
 C            0.84007304        2.84237168        1.47067031
 C            3.13080817        0.12422740        1.05128551
 C            2.69316003        1.42593042        0.75761378
 C            2.74311758       -2.13824066        0.33285466
 C            3.16175950       -0.84458317        0.04127915
 C            0.64292452       -3.15466286        0.39755296
 C            1.70911886       -2.73932019       -0.49320823
 C           -1.50107292       -2.27839915        1.05662782
 C           -0.65165188       -2.80216181        0.07416328
 C           -2.77221865       -0.27343042        1.24688579
 C           -2.60030727       -1.51398511        0.65388692
 C           -1.68767020        1.83296999        0.85046459
 C           -2.60282381        0.85786497        0.44836474
 C            0.40122167        2.82139541        0.16065406
 C           -0.92723121        2.49161656       -0.11671820
 C            2.43246977        1.77984093       -0.56887335
 C            1.35373862        2.63316917       -0.83174966
 C            3.11783085       -0.44286039       -1.28608066
 C            2.91651733        0.95820114       -1.57882093
 C            1.38533840       -2.12658244       -1.70266450
 C            2.28360450       -1.19637720       -2.21161751
 C           -0.95224034       -2.58122874       -1.26619150
 C            0.04773152       -2.07735086       -2.11459367
 C           -3.09431865       -1.66461930       -0.63026174
 C           -2.28677198       -2.39175254       -1.58405774
 C           -2.96016693        0.75439456       -0.89821060
 C           -3.51486966       -0.45989915       -1.31364586
 C           -1.33970666        2.47429050       -1.45107756
 C           -2.37598548        1.61203872       -1.84177191
 C            0.96915658        2.89630580       -2.13854591
 C           -0.45395612        2.98802616       -2.40333057
 C            2.34565683        1.04161211       -2.90982658
 C            1.85901807       -0.28790543       -3.25689385
 C            1.56360922        2.13953931       -3.22698893
 C           -0.29915944       -1.36141449       -3.27416576
 C            0.59196555       -0.42167786       -3.81515262
 C           -2.64871819       -1.91884663       -2.90355119
 C           -3.56426734       -0.80055711       -2.71873226
 C           -1.59604317       -1.46084867       -3.78063589
 C           -2.71328171        1.48202309       -3.19567924
 C           -3.21210913        0.21206265       -3.68355623
 C           -2.16381932       -0.35017403       -4.51976547
 C           -0.63706734        2.70522464       -3.80993367
 C            0.54586096        1.98318986       -4.25058134
 C            0.11329574        0.64089979       -4.58522945
 C           -1.78934635        1.93494452       -4.21518847
 C           -1.29735270        0.74250516       -4.89312724
