   70
C70 / DATE: 7/ 1/2024 / Origin: Program Fullerene / C70 from database
 C            1.24937138       -0.05209840        4.36177895
 C            2.54022222       -0.27768317        3.75539120
 C            2.60183363       -1.67538589        3.37438933
 C            0.44554330       -1.25343726        4.16755366
 C            1.25265228       -2.21055987        3.45013524
 C           -0.81333672       -0.84128447        3.58884645
 C            0.45499210        1.06609496        3.89864485
 C           -0.90898511        0.58847350        3.81153614
 C            0.93070378        1.89778870        2.88428163
 C            2.90519953        0.50605218        2.59302125
 C            2.09851114        1.56172360        2.17865802
 C            3.29800651       -1.75935492        2.10113401
 C            3.40876525       -0.40390848        1.58019840
 C            2.92362045       -2.77194412        1.23353958
 C            0.74065484       -2.84040671        2.32129107
 C            1.67412508       -3.46285903        1.50115768
 C           -1.20091692       -1.35753913        2.35341935
 C           -0.48237674       -2.41054917        1.76745316
 C           -2.14173507       -0.65344695        1.59690199
 C           -1.79655884        1.31255817        3.03959479
 C           -2.55191268        0.61387543        2.01451038
 C            0.02938734        2.79501853        2.30591496
 C           -1.34203428        2.55880371        2.44485377
 C            0.47836582        3.63320958        1.28899007
 C            2.26533605        2.03408192        0.87808990
 C            1.63903046        3.22248038        0.52363444
 C            3.09806175       -0.13883612        0.24603124
 C            2.74244365        1.16252293       -0.10838585
 C            2.93007864       -2.50439438       -0.19021917
 C            2.80634154       -1.19175418       -0.63025604
 C            1.24264751       -4.05510598        0.26126574
 C            2.09714341       -3.52281938       -0.79363236
 C           -0.91889846       -2.93102689        0.53937614
 C           -0.12156412       -3.84210710       -0.15749124
 C           -2.44491025       -1.07225117        0.30209935
 C           -1.96534619       -2.30710543       -0.14770900
 C           -3.05429511       -0.17218555       -0.58503624
 C           -2.93105750        1.59912834        1.01714544
 C           -2.24506208        2.84008619        1.34011021
 C           -3.03403874        1.19545047       -0.30627522
 C           -0.47986736        4.21332137        0.36448871
 C           -1.82229621        3.66603660        0.31169088
 C            1.39409421        3.53052914       -0.87549312
 C            0.08847745        4.14836025       -0.97248440
 C            2.54329064        1.45045644       -1.45416435
 C            1.77425809        2.61736491       -1.84489297
 C            2.16783861       -0.92809157       -1.84835699
 C            2.19988408        0.36403259       -2.35189445
 C            1.22682997       -3.15195133       -1.89235897
 C           -0.06196387       -3.75147599       -1.60147683
 C            1.25773780       -1.84685613       -2.38441035
 C           -2.25018594       -2.73328327       -1.44615497
 C           -1.16424881       -3.24845839       -2.25734452
 C           -3.44513151       -0.58739477       -1.85032927
 C           -3.03675840       -1.88929792       -2.32364501
 C           -3.26476901        0.33494549       -2.94972462
 C           -2.80106442        2.11577386       -1.33696302
 C           -2.08947710        3.27848259       -1.06219516
 C           -0.90136314        3.55783771       -1.85306990
 C           -2.74699338        1.65410388       -2.64665536
 C            0.82073193        2.20099813       -2.86679198
 C            1.12372355        0.81743287       -3.21328780
 C           -0.50978857        2.62917300       -2.81765203
 C           -1.49748719        1.81934974       -3.37525443
 C            0.16513764       -1.39495316       -3.13704485
 C           -0.94125126       -2.23945547       -3.27094727
 C           -2.24978583       -1.68217238       -3.53358684
 C           -2.34612177       -0.28724218       -3.88805418
 C            0.08403004       -0.04919211       -3.52705191
 C           -1.13748910        0.51232128       -3.89683735
