   70
C70 / DATE: 7/ 1/2024 / Origin: Program Fullerene / C70 from database
 C            1.28893527       -0.05159470        4.49312459
 C            2.61191383       -0.29072464        3.94969788
 C            2.64065169       -1.64971273        3.44181451
 C            0.47404632       -1.22677456        4.22179723
 C            1.28844723       -2.18072827        3.49998535
 C           -0.76430249       -0.78261693        3.61804739
 C            0.54958277        1.11462210        4.04531060
 C           -0.76294556        0.66847174        3.61666405
 C            1.19786333        2.09206747        3.30471123
 C            3.10890332        0.58372285        2.90185038
 C            2.48999721        1.80516333        2.68587836
 C            3.31710483       -1.63154472        2.15704130
 C            3.44666051       -0.24019091        1.75223479
 C            2.92282807       -2.55734959        1.20732885
 C            0.77055558       -2.79058788        2.36145673
 C            1.67546612       -3.27521462        1.41788329
 C           -1.25078748       -1.44271996        2.49304823
 C           -0.55460370       -2.54312923        1.97804964
 C           -2.19183862       -0.78373886        1.69455006
 C           -1.40705560        1.31406110        2.56850572
 C           -2.36081169        0.59922493        1.85610525
 C            0.42837916        2.87365506        2.35167220
 C           -0.85674993        2.46745731        1.99420642
 C            2.43776861        2.32726273        1.33454655
 C            1.34784847        3.28268233        1.30856819
 C            3.03591547        0.15113166        0.47279836
 C            2.61011980        1.46379282        0.25103004
 C            2.93288495       -2.16691540       -0.18654546
 C            2.85923640       -0.81430019       -0.52171059
 C            1.20272990       -3.70898944        0.11408038
 C            2.08497297       -3.11741780       -0.88184636
 C           -1.07048103       -3.20409029        0.86762979
 C           -0.16313737       -3.76299805       -0.12111327
 C           -2.78203753       -1.45899709        0.61767550
 C           -2.20007262       -2.63296303        0.15780791
 C           -3.61310581       -0.77411029       -0.26327362
 C           -3.19414757        1.31066738        1.01034437
 C           -3.95794965        0.60204883        0.01087451
 C           -1.42613240        2.98744020        0.82420406
 C           -2.67361983        2.52409466        0.41116344
 C            0.82976199        3.64472625        0.08038860
 C           -0.61298228        3.64068563       -0.10232569
 C            2.08268135        1.82627855       -0.99062824
 C            1.39863902        3.03738740       -1.10644457
 C            2.33553495       -0.45005165       -1.76442667
 C            1.98741715        0.87948172       -2.01353091
 C            1.58237263       -2.76085969       -2.12174420
 C            1.91285214       -1.44868913       -2.64324732
 C           -0.68151640       -3.44198941       -1.44212584
 C           -1.95985373       -2.77721720       -1.27020987
 C            0.18142105       -3.00587113       -2.43494681
 C           -3.36640649       -0.89865582       -1.69229814
 C           -2.34108228       -1.74121470       -2.12318099
 C           -3.86776022        1.34724078       -1.23279187
 C           -2.99047368        2.48336030       -1.00963072
 C           -3.54605104        0.41225583       -2.29420446
 C           -0.86190883        3.46388387       -1.52673167
 C            0.42605365        3.21479853       -2.16557320
 C           -1.99783292        2.77040652       -1.94262065
 C            1.35332126        1.21672958       -3.21430730
 C            0.48997443        2.38526019       -3.27032222
 C            0.91692731       -1.14310723       -3.64888814
 C           -0.25210743       -1.95562765       -3.34035495
 C           -1.49142788       -1.33680561       -3.16305315
 C            0.73571691        0.17650392       -4.02158475
 C           -2.67975507        0.81781611       -3.29395295
 C           -1.98807903        2.09406558       -3.16409744
 C           -0.74828912        1.99265575       -3.91328765
 C           -1.73417446       -0.13952968       -3.83617753
 C           -0.60600589        0.61592508       -4.35489859
