   70
C70 / DATE: 7/ 1/2024 / Origin: Program Fullerene / C70 from database
 C            1.04550141       -0.11456645        4.56308569
 C            2.31757629       -0.43702531        3.95461516
 C            2.18011696       -1.73277024        3.30710455
 C            0.18812731       -1.27750334        4.40405156
 C            0.78309992       -2.10891978        3.37645486
 C           -1.15497318       -0.79050155        4.20081465
 C            0.30836979        1.03009988        4.05812904
 C           -1.08862007        0.66224352        4.10271729
 C            0.79503297        1.71768881        2.94601642
 C            2.85785218        0.47522200        2.96807469
 C            2.15834737        1.63215991        2.63769998
 C            2.80168019       -1.63506264        2.00154231
 C            3.40608548       -0.32319937        1.88522428
 C            2.13590443       -2.13130397        0.89875881
 C            0.09361114       -2.33900941        2.18464702
 C            0.81871626       -2.58950128        1.01723024
 C           -1.89292423       -1.25672939        3.04501468
 C           -1.27918404       -2.07684336        2.09610886
 C           -1.94333635        1.05691564        3.00399024
 C           -2.65895133       -0.12514375        2.57028477
 C           -0.10142276        2.27704922        2.01792071
 C           -1.45783395        1.91252077        2.02442113
 C            0.38777192        3.09261159        0.99083119
 C            2.65195447        2.36272418        1.56873184
 C            1.76172622        3.23578426        0.83295629
 C            3.50663091        0.27190740        0.62527199
 C            3.47599507        1.66453519        0.59386855
 C            2.59998085       -1.75312539       -0.34906691
 C            3.11860419       -0.45735122       -0.51681410
 C            2.15449684       -2.48724758       -1.43545503
 C            0.14194181       -2.99468699       -0.13389142
 C            0.87310253       -3.16054503       -1.31404757
 C           -1.91190937       -2.20721200        0.85734593
 C           -1.24616226       -2.85226819       -0.18949900
 C           -3.10648002       -0.16524200        1.26180320
 C           -2.99996849       -1.37115654        0.57855862
 C           -2.20313254        2.02650182        0.85199389
 C           -3.11333052        1.01604224        0.52137703
 C           -0.45128790        3.46272164       -0.06101345
 C           -1.80423078        2.94212459       -0.11198056
 C            0.06015816        3.47190478       -1.42682305
 C            2.31202329        3.37125326       -0.50527075
 C            3.33249692        2.34833420       -0.66879305
 C            1.41403907        3.29352278       -1.64197610
 C            3.04199197        0.18100310       -1.77174468
 C            2.99681083        1.56814136       -1.83469446
 C            1.85257062        2.19005578       -2.48161251
 C            2.23612682       -1.90910692       -2.75353740
 C            2.49060807       -0.49306055       -2.85531940
 C            0.20845310       -3.08302084       -2.60554718
 C            0.99050297       -2.19069710       -3.44323748
 C           -1.90970106       -3.06449926       -1.39658473
 C           -1.16919003       -2.96044472       -2.63922419
 C           -3.68810962       -1.50059315       -0.61989229
 C           -3.18933211       -2.41698168       -1.62287096
 C           -3.68819877        0.99339809       -0.74840236
 C           -4.10582598       -0.28730358       -1.30057191
 C           -2.12847438        2.70588219       -1.50983801
 C           -0.87641583        2.72436191       -2.24010348
 C           -3.05938671        1.73540141       -1.82682552
 C            0.91919395        1.36452823       -3.11296068
 C            1.36194399        0.11922244       -3.54338895
 C            0.40196001       -0.92301504       -3.84540216
 C           -0.44934115        1.57174405       -2.90192456
 C           -1.74105186       -1.83622078       -3.35942872
 C           -3.09858706       -1.68856966       -2.88152035
 C           -3.61320398       -0.35635669       -2.66690032
 C           -2.72344023        0.77192921       -2.85856696
 C           -0.94792518       -0.71041370       -3.59463316
 C           -1.37917454        0.55766300       -3.17728211
