   70
C70 / DATE: 7/ 1/2024 / Origin: Program Fullerene / C70 from database
 C            1.36284508        0.12598121        4.99078311
 C            0.59358957       -1.09212269        4.83625305
 C            1.47129274       -2.09273444        4.27216744
 C            2.61739756       -0.05539013        4.27639176
 C            2.68235311       -1.42536606        3.82198647
 C            2.70435297        0.99043119        3.28433122
 C            0.63022819        1.19741651        4.33501947
 C            1.53634757        1.84591662        3.42368013
 C           -0.62138842       -0.76429451        4.11145696
 C           -0.58783757        0.65226924        3.78365331
 C           -1.09616210       -1.64027567        3.14251639
 C            0.97132480       -2.86876670        3.16083097
 C           -0.37820565       -2.81242765        2.84211598
 C            2.82517769       -1.68052942        2.39540612
 C            1.91800225       -2.76084616        2.06382867
 C            3.12638704        0.68809154        1.99104977
 C            2.95253864       -0.61726539        1.50506016
 C            3.04828026        1.73801059        1.08767370
 C            1.03067735        2.40179946        2.25736555
 C            1.98163877        2.70156911        1.29612102
 C           -0.98043243        1.04889763        2.50367241
 C           -0.25806394        2.04012607        1.82055109
 C           -1.97438661       -1.12292082        2.19119021
 C           -1.83022353        0.20963606        1.78397374
 C           -2.66628737       -2.01549624        1.39124150
 C           -0.74254483       -3.52679034        1.70925760
 C           -2.05312173       -3.30078335        1.14440835
 C            1.41531898       -2.86395177        0.76765427
 C            0.21129816       -3.55114557        0.60762040
 C            2.58814879       -0.81707223        0.16774590
 C            1.76734509       -1.90055872       -0.18414649
 C            3.10264782        1.46545233       -0.33359240
 C            2.87769690        0.17246816       -0.77584426
 C            1.54367274        3.15806796        0.00597246
 C            2.41522071        2.56263387       -0.99153865
 C           -0.66644498        2.40919121        0.52742379
 C            0.18657331        3.19858051       -0.25687027
 C           -2.32272149        0.62847274        0.54395807
 C           -1.75072751        1.75055976       -0.07665974
 C           -3.22601944       -1.55681639        0.14150148
 C           -3.20714107       -0.19930484       -0.16199934
 C           -1.93927976       -3.46308928       -0.29185810
 C           -0.53743092       -3.41398802       -0.63137133
 C           -2.80210408       -2.48201713       -0.89803623
 C            1.14476217       -1.91830692       -1.43499506
 C           -0.12100889       -2.48209738       -1.57387436
 C            2.50632409       -0.00902862       -2.10344212
 C            1.63997063       -1.11902291       -2.44934009
 C            1.89838620        2.37896095       -2.26876075
 C            2.09033140        1.14365850       -2.89417099
 C           -0.16477309        3.48858720       -1.56478823
 C            0.79076631        3.15159024       -2.61184902
 C           -2.20312495        2.16671408       -1.33620409
 C           -1.47407015        3.11876629       -2.04420846
 C           -3.53868464        0.12780882       -1.47178936
 C           -3.17369851        1.42177702       -1.99855454
 C           -2.42877444       -1.91992229       -2.10645936
 C           -1.06021829       -1.89022418       -2.43754821
 C           -3.21618670       -0.85205869       -2.49713735
 C            0.74420374       -0.68342663       -3.50593054
 C            1.13979542        0.66490750       -3.89043693
 C           -0.60724896       -1.02443620       -3.44841061
 C            0.03936718        2.84426472       -3.81200546
 C           -1.36654338        3.02790952       -3.49340372
 C            0.19069348        1.53377011       -4.41254176
 C           -3.10617898        1.26363307       -3.44492075
 C           -2.87492126       -0.14524191       -3.70276890
 C           -1.52330210       -0.27844038       -4.19344269
 C           -2.10526581        1.99796384       -4.18750711
 C           -1.14043314        1.03027600       -4.69745524
