   70
C70 / DATE: 7/ 1/2024 / Origin: Program Fullerene / C70 from database
 C            1.13847576       -0.02401975        4.41597800
 C            2.48686417       -0.37294852        4.03573800
 C            2.47226290       -1.75467944        3.57583546
 C            0.32041186       -1.21402374        4.24489840
 C            1.08011579       -2.15158712        3.45238589
 C           -0.95459361       -0.78032321        3.73525558
 C            0.47218587        1.05258626        3.70684854
 C           -0.91995008        0.66891968        3.62328957
 C            1.07454936        1.62069529        2.58756195
 C            3.13602193        0.40816712        3.00628046
 C            2.44758943        1.44089796        2.36467606
 C            3.33219987       -1.83833946        2.40766721
 C            3.91712969       -0.52108863        2.20855228
 C            2.88946926       -2.56003375        1.30771633
 C            0.59141273       -2.54266161        2.20488399
 C            1.49963417       -2.99492841        1.25157904
 C           -1.54401353       -1.48591384        2.69663603
 C           -0.71893522       -2.20743658        1.81715646
 C           -2.71863116       -0.93379475        2.21192833
 C           -1.72450880        1.24761183        2.65111272
 C           -2.84281437        0.51365096        2.26344048
 C            0.25624445        2.15724076        1.58395060
 C           -1.14120257        2.11812542        1.72497545
 C            0.82227301        2.67330782        0.41197973
 C            3.03431830        2.00083844        1.23695174
 C            2.19707246        2.61266676        0.22443204
 C            4.31133901       -0.12626884        0.93717364
 C            4.07989637        1.25516667        0.55388896
 C            3.27903178       -2.14362608       -0.03041012
 C            3.98183573       -0.96100124       -0.21148673
 C            1.11215142       -3.04105508       -0.14099568
 C            2.18454551       -2.46483730       -0.92889794
 C           -1.13000214       -2.42071396        0.48748091
 C           -0.18825839       -2.73336075       -0.49786485
 C           -3.24775536       -1.37133841        0.94265258
 C           -2.44230719       -2.12414241        0.09726547
 C           -3.62733862        0.93630931        1.11980569
 C           -4.02648649       -0.26515490        0.40327843
 C           -1.94548110        2.67458467        0.72906980
 C           -3.22758792        2.06049758        0.41355895
 C            0.01690818        2.87032970       -0.70828909
 C           -1.33978821        3.09418024       -0.52020420
 C            0.50661646        2.51750019       -1.97027613
 C            2.69195855        2.20398666       -1.07849628
 C            3.79017066        1.28101908       -0.86667012
 C            3.62250942       -0.08656522       -1.31509543
 C            1.75428442        1.90279832       -2.05710491
 C            1.84459000       -1.59909835       -1.96533721
 C            2.51502967       -0.37779590       -2.10638167
 C            1.85745934        0.68170975       -2.73214464
 C           -0.43211841       -2.36302690       -1.81621293
 C            0.58489970       -1.74389291       -2.55237277
 C           -2.79598320       -2.21784064       -1.24984224
 C           -1.74844155       -2.31318685       -2.24980162
 C           -4.25548314       -0.20972564       -0.96371325
 C           -3.82566271       -1.33389695       -1.77356785
 C           -3.41214217        2.10818627       -1.02810210
 C           -2.27983737        2.82179705       -1.59496612
 C           -3.94917641        1.01134377       -1.69677165
 C           -0.35867542        2.40820479       -3.05410731
 C           -1.79485197        2.47023515       -2.84593620
 C            0.91544892        0.37681965       -3.70620255
 C            0.26063499       -0.91440530       -3.62297204
 C           -0.09637632        1.36671053       -4.02668771
 C           -2.11346768       -1.47054049       -3.37585843
 C           -3.37272902       -0.81970148       -3.05388847
 C           -3.43059204        0.63269279       -3.00235718
 C           -2.40359288        1.37017016       -3.58103182
 C           -1.12589175       -0.74500369       -4.02488359
 C           -1.34286437        0.66900746       -4.28695392
