   70
C70 / DATE: 7/ 1/2024 / Origin: Program Fullerene / C70 from database
 C            1.32811709        0.03518519        4.61332492
 C            0.59863918       -1.15524069        4.21876048
 C            1.39804690       -1.88469742        3.26228491
 C            2.57557553        0.05175730        3.87305267
 C            2.63721927       -1.14255830        3.06425554
 C            2.66483357        1.32213936        3.19699834
 C            0.54796562        1.18815457        4.19044737
 C            1.36916914        1.97856498        3.30949635
 C           -0.71556894       -0.73747150        3.80641762
 C           -0.71373812        0.70749839        3.68533610
 C           -1.34752858       -1.43217248        2.79413499
 C            0.77157975       -2.45255114        2.15228335
 C           -0.61192976       -2.29403477        1.96552591
 C            1.57030877       -2.77645625        1.06032969
 C            3.15411595       -1.05037110        1.77743372
 C            2.83050822       -2.07155032        0.88709796
 C            3.30240868        1.38441981        1.96681995
 C            3.59886640        0.18790455        1.28268248
 C            3.05946847        2.54197582        1.23643880
 C            0.80912498        2.52871159        2.15710293
 C            1.70912261        3.07959768        1.25118117
 C           -1.24142611        1.25183241        2.51463140
 C           -0.43541650        2.05831678        1.69314320
 C           -2.43804770       -0.80049242        2.23035439
 C           -2.30065155        0.56017333        1.93062979
 C           -3.24763803       -1.58238558        1.43319923
 C           -1.19350950       -2.69383712        0.75032101
 C           -2.57367318       -2.56184046        0.60197389
 C            0.96770877       -2.94389974       -0.25049578
 C           -0.40060542       -2.75613027       -0.39641799
 C            3.05745205       -1.90264416       -0.53562763
 C            1.86530475       -2.36181436       -1.22981235
 C            4.11019893        0.24223807       -0.01723176
 C            3.71043421       -0.76806741       -0.98386834
 C            3.58734037        2.67743867       -0.10002966
 C            4.17052860        1.51067381       -0.72266718
 C            1.31240608        3.28527397       -0.12427337
 C            2.50472665        3.15396823       -0.94591507
 C           -0.80802075        2.25920273        0.35033002
 C            0.12786342        2.72173667       -0.57376084
 C           -2.85434407        1.05277752        0.75356557
 C           -2.02615300        1.75909646       -0.12393094
 C           -4.25542872       -0.92627336        0.63353616
 C           -4.02560115        0.46027425        0.28917552
 C           -3.13969113       -2.45129077       -0.73092114
 C           -4.36071065       -1.66803583       -0.60462780
 C           -0.90414671       -2.29773113       -1.62235554
 C           -2.29270203       -2.23232578       -1.81586126
 C            1.32032334       -1.60401959       -2.25734535
 C           -0.01741810       -1.80676799       -2.59688088
 C            3.20060463       -0.08121467       -2.15750121
 C            3.52570098        1.33017290       -2.01175674
 C            2.44518682        2.29772772       -2.11226049
 C            1.94755057       -0.41960869       -2.66630483
 C            0.04871504        2.29010988       -1.89578189
 C            1.20674770        1.83991240       -2.53705179
 C            1.16054761        0.60969090       -3.17913352
 C           -2.25265729        1.70647480       -1.50866880
 C           -1.17891408        1.86245532       -2.39417662
 C           -4.41104426        0.62198429       -1.09595045
 C           -4.68574607       -0.70689802       -1.63628591
 C           -3.48809326        1.27725635       -1.99687538
 C           -2.81979253       -1.67152941       -2.98164223
 C           -3.98816121       -0.80954526       -2.89821379
 C           -3.53804561        0.52727127       -3.23742313
 C           -0.50777069       -1.07122066       -3.66686528
 C           -0.01592143        0.27930303       -3.82542560
 C           -1.15676983        1.13420043       -3.58426320
 C           -1.93094932       -1.03288759       -3.92283420
 C           -2.31659538        0.37209282       -3.99182749
