   70
C70 / DATE: 7/ 1/2024 / Origin: Program Fullerene / C70 from database
 C            1.50049676        0.20363809        5.02439194
 C            0.70591069       -0.99044234        4.80660752
 C            1.52007104       -1.92572361        4.06610813
 C            2.66107557        0.12190054        4.15184151
 C            2.70567737       -1.21601771        3.60870505
 C            2.59600329        1.24193712        3.23176892
 C            0.71172047        1.34381011        4.59287894
 C            1.53467859        2.12163430        3.69469701
 C           -0.56219010       -0.58546606        4.23090847
 C           -0.56435541        0.86066561        4.09396143
 C           -1.11843845       -1.32786181        3.20077248
 C            0.93072726       -2.57349003        2.91047046
 C           -0.41786023       -2.40468185        2.63606728
 C            2.77309289       -1.37642152        2.17059519
 C            1.84987613       -2.43371411        1.80423323
 C            2.74426264        1.03556882        1.85609946
 C            2.85610321       -0.26344453        1.33924891
 C            2.38502620        2.07654179        0.99151434
 C            0.88747552        2.89258499        2.74806037
 C            1.53237751        3.07397746        1.46709684
 C           -1.08812904        1.43060967        2.92671209
 C           -0.51355955        2.60709992        2.45060565
 C           -2.07832448       -0.69681659        2.41977903
 C           -1.85558051        0.63526355        2.06265960
 C           -2.84016652       -1.50201187        1.59219043
 C           -0.87511890       -2.88345550        1.41312288
 C           -2.23626702       -2.75447307        1.18831090
 C            1.32144798       -2.42585191        0.51621020
 C            0.00209728       -2.83863579        0.31371536
 C            2.61293657       -0.45930811       -0.01343949
 C            1.90042753       -1.59024156       -0.42976746
 C            2.50124408        1.89980611       -0.39153976
 C            2.75310366        0.61621312       -0.88010611
 C            1.91827537        2.85271011       -1.23049893
 C            0.50117736        3.58586386        0.59288467
 C           -0.74564100        3.01475318        1.07595057
 C            0.74479763        3.56777323       -0.76374596
 C           -2.09691809        1.04723730        0.73787931
 C           -1.48358194        2.19280879        0.22873261
 C           -3.42007015       -0.92531518        0.40137636
 C           -2.84774058        0.23492478       -0.11796789
 C           -2.76745843       -3.09971965       -0.10629588
 C           -3.70365985       -2.04793780       -0.46860212
 C           -0.51095250       -2.83653295       -0.99465968
 C           -1.83439992       -3.22756722       -1.20081868
 C            1.47967061       -1.67893535       -1.75129145
 C            0.20438888       -2.19860717       -2.02806046
 C            2.71629880        0.36239651       -2.24777900
 C            2.14634817       -0.89804337       -2.68766756
 C            1.68640226        2.54208582       -2.63071687
 C            2.25480111        1.39280821       -3.15942369
 C           -0.33337726        3.17534873       -1.64418807
 C           -1.34302973        2.34671016       -1.15277403
 C            0.28867717        2.86238090       -2.91430519
 C           -2.78309436        0.43567302       -1.50671920
 C           -1.98727412        1.46352036       -2.02152096
 C           -3.59227105       -1.85864986       -1.89142677
 C           -2.54154898       -2.75067992       -2.36558455
 C           -3.26081799       -0.54043613       -2.38645889
 C           -0.41357748       -1.95709181       -3.27331984
 C           -1.79940247       -2.02236394       -3.36462174
 C           -2.52736873       -0.78784525       -3.60795855
 C            1.56520594       -0.69313265       -3.99137957
 C            1.61355831        0.73276934       -4.28221577
 C            0.21531095       -1.15210500       -4.21961360
 C           -0.42617945        2.10227855       -3.82550449
 C           -1.66039788        1.47159189       -3.38457905
 C           -1.83191805        0.26306226       -4.17545516
 C            0.28060410        1.15299606       -4.66757703
 C           -0.54067867       -0.03792303       -4.76857367
