   70
C70 / DATE: 7/ 1/2024 / Origin: Program Fullerene / C70 from database
 C            1.66127086        0.00647803        4.66277521
 C            0.82418212       -1.16503095        4.47221990
 C            1.35506567       -1.91728373        3.34774228
 C            2.66432857        0.00543642        3.61490798
 C            2.56591121       -1.24795847        2.90149782
 C            2.52142228        1.22281264        2.84638184
 C            0.82605510        1.17663047        4.46881159
 C            1.32634894        1.90508879        3.31309357
 C           -0.55507758       -0.72189948        4.42292298
 C           -0.55535055        0.73645705        4.46165043
 C           -1.42884809       -1.38533293        3.57018397
 C            0.47922906       -2.42595133        2.38582415
 C           -0.89854724       -2.32760281        2.59250650
 C            0.96153920       -2.66022465        1.09355976
 C            2.83377018       -1.24864966        1.54223005
 C            2.26501199       -2.25619215        0.78447419
 C            2.74008419        1.16064515        1.47965830
 C            3.15072818       -0.04572607        0.90220249
 C            2.08870532        2.08602108        0.67914765
 C            0.41330688        2.39219542        2.37482214
 C            0.79511022        2.48114478        1.03000422
 C           -1.45265216        1.43735629        3.66913855
 C           -0.93695468        2.40324927        2.70697314
 C           -2.51049154       -0.65195214        2.93362758
 C           -2.54698854        0.73039664        3.02640451
 C           -1.79467966       -2.32488178        1.44772908
 C           -2.78322974       -1.28223732        1.65231568
 C            0.05577438       -2.92996238        0.06099277
 C           -1.26466029       -2.50825958        0.17792597
 C            0.53223399       -3.28153946       -1.19304552
 C            2.75839781       -2.43641730       -0.49610722
 C            1.94757789       -3.14062657       -1.46420454
 C            3.40994523       -0.06801238       -0.47471807
 C            3.36183477       -1.29076831       -1.15537473
 C            2.51427105        2.20827222       -0.63161400
 C            3.30591371        1.12591641       -1.19069194
 C            1.56310858        2.62375032       -1.64010743
 C           -0.16906907        2.68293555        0.02597334
 C            0.21271551        2.62784456       -1.32031640
 C           -1.92545560        2.53889560        1.66076569
 C           -2.92427504        1.50130964        1.85928865
 C           -1.52326086        2.81494988        0.35935161
 C           -3.16690574       -0.50875247        0.56172886
 C           -3.41766083        0.86204522        0.73000806
 C           -1.91391267       -1.94810196       -0.92844184
 C           -2.94814250       -1.01987492       -0.72125727
 C           -0.18940969       -2.82874293       -2.36688832
 C           -1.42229856       -2.20185365       -2.21950900
 C            2.10158212       -2.47615265       -2.74679074
 C            2.98581289       -1.34329905       -2.56381582
 C            0.77682993       -2.25035680       -3.29153505
 C            3.04987468        1.09449203       -2.61890866
 C            1.98107704        2.04050000       -2.89684648
 C            2.71032279       -0.16795612       -3.24411154
 C            0.47634068       -1.03563102       -3.90783383
 C            0.98595245        1.36827624       -3.70278412
 C            1.42532237       -0.00495652       -3.91530978
 C           -0.73182026        2.32523693       -2.30666564
 C           -0.35933804        1.59888714       -3.45080329
 C           -2.48590079        2.64512566       -0.63430874
 C           -3.53188996        1.65806282       -0.40279086
 C           -2.07714156        2.52871853       -2.02045606
 C           -3.54523996       -0.37803159       -1.80098784
 C           -3.83912402        1.03052273       -1.66813358
 C           -3.08558968        1.73028093       -2.69353594
 C           -1.85864743       -1.43095517       -3.28942729
 C           -0.86812756       -0.70351789       -4.06657646
 C           -1.25264095        0.69397131       -4.01155184
 C           -3.00896617       -0.57023818       -3.12883784
 C           -2.65466083        0.74102461       -3.65455277
