   70
C70 / DATE: 7/ 1/2024 / Origin: Program Fullerene / C70 from database
 C            0.95238376       -0.13562455        4.93221356
 C            2.26794033       -0.35791502        4.36855925
 C            2.23264600       -1.64677631        3.69283364
 C            0.14396104       -1.29990227        4.60238514
 C            0.84917934       -2.03801312        3.57208026
 C           -1.18953904       -0.83322982        4.32094230
 C            0.19984684        1.04220611        4.53737060
 C           -1.17484942        0.62419924        4.35633509
 C            0.75220390        1.95266821        3.64308171
 C            2.81566514        0.60975238        3.43278992
 C            2.09463523        1.74954622        3.10937188
 C            2.99464210       -1.51906727        2.47993912
 C            3.44863369       -0.14315841        2.36980017
 C            2.52463218       -2.11969548        1.32217838
 C            0.29333298       -2.15993376        2.29220662
 C            1.13834460       -2.31464679        1.17844217
 C           -1.80077826       -1.21507569        3.06780845
 C           -1.07459398       -1.92178193        2.10318906
 C           -1.91666961        1.09086527        3.19498554
 C           -2.57125242       -0.07065159        2.63238293
 C           -0.06843225        2.51590344        2.57955867
 C           -1.34653112        2.01173533        2.31933941
 C            2.10734166        2.22802095        1.73621080
 C            0.81161307        2.82060363        1.46371156
 C            3.54204184        0.38880043        1.08590571
 C            2.73225149        1.48394872        0.73789462
 C            3.27811502       -1.85076341        0.19223947
 C            3.87538346       -0.52703103        0.09551387
 C            2.75656101       -2.19180806       -1.10521095
 C            0.57809649       -2.43266538       -0.10566264
 C            1.41283325       -2.51710325       -1.23033777
 C           -1.60963177       -1.95542240        0.81489961
 C           -0.81226038       -2.33721088       -0.26724953
 C           -2.92938598       -0.03524824        1.30125863
 C           -2.76019754       -1.20221076        0.57735420
 C           -1.85100475        2.08863230        1.01565795
 C           -2.82661540        1.16816337        0.60990139
 C            0.29094259        2.75022202        0.18254481
 C           -1.09074867        2.73883574        0.04460825
 C            2.31239256        1.65952803       -0.59016477
 C            1.07775289        2.25829650       -0.86164311
 C            3.82120833       -0.11762762       -1.28745989
 C            3.33601547       -1.25266636       -2.04885202
 C            2.98882378        1.01374740       -1.61927657
 C            2.48717202       -0.73969150       -3.10156436
 C            2.27209632        0.67728336       -2.83818507
 C            0.86122049       -2.46393834       -2.50597202
 C            1.39498546       -1.50551618       -3.46939621
 C           -1.38876800       -2.40183333       -1.54432665
 C           -0.57632040       -2.49246638       -2.66788871
 C           -3.35962358       -1.25550611       -0.66377818
 C           -2.71731456       -2.01711009       -1.71148904
 C           -3.29052741        1.19372136       -0.70954016
 C           -3.78966119        0.00160967       -1.24877049
 C           -1.62069613        2.90318545       -1.22388885
 C           -2.85578488        2.21982826       -1.54925070
 C            0.52012590        2.16690307       -2.14208300
 C            1.00515772        1.21507197       -3.04608526
 C           -0.72969942        2.74148017       -2.35863464
 C            0.26125965       -0.83507546       -4.06608375
 C           -0.88447855       -1.69577588       -3.84880377
 C            0.11698024        0.53876176       -3.89218015
 C           -3.14753696       -1.44079105       -2.97805977
 C           -3.85706730       -0.20355983       -2.68473121
 C           -2.15371732       -1.15644688       -3.99499040
 C           -2.88316824        2.06494638       -2.99553285
 C           -1.53139630        2.29624342       -3.48195929
 C           -1.11003008        1.11411931       -4.20398293
 C           -3.35757887        0.82395125       -3.57161709
 C           -2.27255807        0.25015970       -4.35084293
