   70
C70 / DATE: 7/ 1/2024 / Origin: Program Fullerene / C70 from database
 C            1.47222033       -0.00795842        5.07648816
 C            0.69399846       -1.23207078        5.02418387
 C            1.59036165       -2.28106113        4.59204589
 C            2.67114544       -0.22522417        4.28376250
 C            2.76838401       -1.64124896        4.01687116
 C            2.61801250        0.68379626        3.15839448
 C            0.69906828        1.03354339        4.42305603
 C            1.51055684        1.59695086        3.36995396
 C           -0.50467918       -0.96238685        4.24287203
 C           -0.57610288        0.47604678        4.04051962
 C           -0.87150645       -1.81072723        3.18918466
 C            1.10290699       -3.23404912        3.62025898
 C           -0.19116458       -3.01009350        2.99198610
 C            2.87323897       -2.08450467        2.63745621
 C            2.08350954       -3.28809726        2.54956849
 C            2.82839929        0.21472771        1.86312949
 C            2.78673086       -1.15997207        1.59121949
 C            2.52965644        1.08931816        0.82962358
 C            0.86970616        2.07695718        2.23487117
 C            1.60784328        2.11244689        1.06709295
 C           -1.15319777        0.92718448        2.86554709
 C           -0.51113548        1.91789375        2.10864756
 C           -1.65440334       -1.29211804        2.14962005
 C           -2.00503847        0.05758480        2.20828869
 C           -1.78060117       -1.99111605        0.93351474
 C           -0.06440948       -3.51938792        1.64585209
 C            1.35589617       -3.51460351        1.32682041
 C           -0.93345020       -3.07237813        0.65895707
 C            2.38809809       -1.59874294        0.31149649
 C            1.74294147       -2.84001992        0.17687618
 C            2.70268153        0.64986731       -0.47422147
 C            2.37503052       -0.67797703       -0.75396366
 C            2.60842660        1.60699009       -1.47621076
 C            1.06505765        2.76597084       -0.02510194
 C            1.86086237        2.80773770       -1.15802192
 C           -1.12236335        2.32702114        0.91230237
 C           -0.33115993        2.77079191       -0.16155134
 C           -2.81458979        0.59466773        1.23081028
 C           -2.40988860        1.86529082        0.65707323
 C           -2.53733506       -1.42654091       -0.10898090
 C           -3.24236315       -0.25182556        0.14235070
 C           -2.32924301       -1.83869685       -1.43568481
 C           -0.49544269       -3.24493874       -0.64558409
 C            0.91846932       -3.04512254       -0.91507673
 C           -1.23511613       -2.64214868       -1.72515331
 C            1.70950851       -0.98713467       -1.95364735
 C            1.02513111       -2.18176705       -2.06649173
 C           -0.27051591       -2.17858590       -2.71059218
 C            2.16773098        1.19966876       -2.78911099
 C            1.44982446        0.01435489       -2.89193102
 C            1.31091273        3.32710331       -2.38507975
 C            1.69161276        2.40302771       -3.44211915
 C           -0.91223730        2.98937515       -1.42669854
 C           -0.12131932        3.49421920       -2.46410267
 C           -2.94185495        1.91598100       -0.68697350
 C           -3.58898598        0.63555149       -0.94938303
 C           -2.21106450        2.52848066       -1.69797646
 C           -2.85179815       -1.09437367       -2.49457548
 C           -3.57922805        0.13655985       -2.23755798
 C           -0.62648474       -1.10083740       -3.50749983
 C            0.28778355       -0.05230773       -3.68663845
 C           -1.99123192       -0.85239465       -3.64146554
 C            0.57009665        2.30441791       -4.34412053
 C           -0.46168089        3.20047779       -3.84156896
 C           -0.05722654        1.01289215       -4.52645885
 C           -2.62642283        2.30701266       -3.01311349
 C           -3.29051687        1.05548842       -3.32631024
 C           -2.44885585        0.35950589       -4.28556279
 C           -1.73414829        2.57933630       -4.11985832
 C           -1.45904069        1.30217113       -4.76230803
