   70
C70 / DATE: 7/ 1/2024 / Origin: Program Fullerene / C70 from database
 C            1.09556944        0.25695146        4.82693913
 C            2.39928481        0.05511135        4.23275769
 C            2.49886085       -1.35642144        3.92842825
 C            0.29946559       -0.93518401        4.54694971
 C            1.14438818       -1.86875932        3.84096050
 C           -0.92834344       -0.50497385        3.91962129
 C            0.32365603        1.40044792        4.39510984
 C           -1.01816641        0.92254890        4.12790521
 C            0.74837121        2.12655114        3.20931672
 C            2.73626853        0.77409966        3.01368746
 C            1.80820655        1.64151049        2.44230520
 C            3.33554076       -1.48510702        2.75663398
 C            3.45290294       -0.15467262        2.16118103
 C            3.06971579       -2.54748145        1.91065913
 C            0.72286068       -2.40465941        2.62481730
 C            1.69231115       -3.02926635        1.84195249
 C           -1.27733059       -1.00277157        2.66604607
 C           -0.45289735       -1.93057476        2.01452690
 C           -2.21172039       -0.28951464        1.91306060
 C           -1.53808744        1.71703846        3.04061780
 C           -0.46636691        2.55369429        2.53758683
 C           -2.32406074        1.09643328        2.09029919
 C           -0.43135271        2.78601722        1.16528856
 C            1.75714416        1.78403193        1.05451981
 C            0.77812733        2.61029988        0.49665829
 C            3.36136200       -0.02366153        0.77544897
 C            2.53925772        0.96524221        0.22405143
 C            3.55414074       -2.44698057        0.55354346
 C            3.70882862       -1.11899535       -0.00839830
 C            1.40236128       -3.34704607        0.45890750
 C            2.62513416       -3.16933635       -0.29165910
 C           -0.74631503       -2.28012972        0.68777514
 C            0.22454484       -2.89213252       -0.11221771
 C           -2.69623960       -0.84864382        0.72830472
 C           -1.93729627       -1.83980107        0.09690300
 C           -3.62839952       -0.10761315       -0.00582881
 C           -2.63973255        1.85352292        0.97874575
 C           -1.62344936        2.65525977        0.44032586
 C           -3.61331565        1.33281451        0.15021940
 C           -1.62070254        2.96313511       -0.92597981
 C            0.83766634        2.91478377       -0.85392694
 C           -0.40149149        3.16327489       -1.57299965
 C            2.40083342        1.05248350       -1.16800436
 C            1.70606704        2.13109508       -1.71212635
 C            3.24463133       -1.18626269       -1.37800845
 C            2.54148759       -2.45213192       -1.54486987
 C            2.69595489       -0.05572316       -1.97170191
 C            0.16424584       -2.75055401       -1.50073936
 C            1.32523902       -2.42359421       -2.21546808
 C           -2.18981340       -2.17234947       -1.23563839
 C           -1.08083749       -2.56348385       -2.08639187
 C           -3.85776919       -0.39128508       -1.41129507
 C           -3.09343659       -1.36388735       -2.03534842
 C           -3.83058851        1.93955517       -1.14012811
 C           -2.77083935        2.75729067       -1.68789350
 C           -4.11165497        0.87301917       -2.08493776
 C           -2.64256235        2.40289342       -3.09089893
 C           -3.40156964        1.17994784       -3.31137738
 C           -0.22088953        2.70015166       -2.94068791
 C            1.05027025        1.99712123       -3.00401534
 C           -1.31539991        2.21439100       -3.64666397
 C            1.96216289       -0.26612708       -3.13697054
 C            1.23416406       -1.51661905       -3.26414882
 C            1.13600376        0.79198607       -3.68365903
 C           -1.18845262       -1.82134405       -3.33273412
 C           -2.43907350       -1.08283593       -3.30857192
 C           -2.49625338        0.19225228       -3.86636322
 C           -1.26493015        0.87926086       -4.22406334
 C           -0.05205450       -1.23197591       -3.86760832
 C           -0.06563678        0.17768322       -4.23072953
