   70
C70 / DATE: 7/ 1/2024 / Origin: Program Fullerene / C70 from database
 C            1.41127346       -0.07393684        4.17805267
 C            2.63980851       -0.20922023        3.41071413
 C            2.52361755       -1.41495200        2.60719552
 C            0.58922094       -1.24420094        3.92232949
 C            1.31010834       -2.10962035        3.01354107
 C           -0.72988937       -0.79513445        3.52921011
 C            0.58273014        1.10489518        3.98699840
 C           -0.72279910        0.65534140        3.53462285
 C            1.14727026        2.23445108        3.41305271
 C            3.20767084        0.92515576        2.84996732
 C            2.55603623        2.20837206        3.05904717
 C            3.64295549        0.88110540        1.46471239
 C            2.86833967       -1.39590550        1.25463426
 C            3.26218683       -0.19383090        0.65822793
 C            2.41433887       -2.43976282        0.45417914
 C            0.59482698       -2.80260745        2.04528835
 C            1.29753459       -3.23930150        0.92798662
 C           -1.36560510       -1.44743911        2.47785923
 C           -0.78750625       -2.60222736        1.94202315
 C           -2.33084783       -0.75616377        1.73803841
 C           -1.36659275        1.31329289        2.49532026
 C           -2.38815568        0.64360157        1.82910013
 C            0.43670538        2.91748153        2.34432281
 C           -0.75427446        2.39899547        1.85997143
 C            2.72720697        2.99620172        1.85218455
 C            3.56649939        2.23791050        0.94374681
 C            1.41279547        3.41314529        1.39005828
 C            3.36417579        2.41272504       -0.41364235
 C            3.08330565        0.00331876       -0.71687410
 C            3.38385862        1.24426637       -1.26926073
 C            2.22057137       -2.21847893       -0.96678243
 C            2.38489726       -0.94065411       -1.47545590
 C            0.57301323       -3.72555684       -0.22906018
 C            1.08102939       -3.01178391       -1.39339424
 C           -1.50363449       -3.32332556        0.99273787
 C           -0.79056879       -3.94434232       -0.11435884
 C           -3.07690406       -1.44717286        0.77368392
 C           -2.73677515       -2.76249405        0.46707837
 C           -3.90559865       -0.75310649       -0.10705847
 C           -3.12274233        1.37286517        0.90537690
 C           -4.00491635        0.68538394       -0.00748550
 C           -1.14159845        2.73430522        0.56554933
 C           -2.43447313        2.41661004        0.17085305
 C            1.13548834        3.34039949        0.02375524
 C            2.21745740        3.19653706       -0.84298147
 C           -0.15556871        2.97783403       -0.39840710
 C            2.74060333        1.63966022       -2.50519787
 C            1.98512190        2.85581159       -2.22692402
 C            1.62171408       -0.54248089       -2.57830384
 C            1.83280745        0.71108922       -3.14765229
 C            0.18758051       -2.48368653       -2.32268286
 C            0.46561949       -1.25241165       -2.92312021
 C           -1.60991519       -3.80783524       -1.30228386
 C           -2.87781711       -3.22381116       -0.90324896
 C           -1.09629924       -3.02560465       -2.41125630
 C           -3.88992870       -1.09205686       -1.52248067
 C           -3.26742497       -2.26694425       -1.92426364
 C           -2.19367299       -2.21221730       -2.90739850
 C           -3.79036511        1.24313109       -1.33314199
 C           -2.71547240        2.21813344       -1.23484741
 C           -3.66030745        0.13776184       -2.26467942
 C           -0.41832921        2.70103804       -1.75268298
 C            0.62873955        2.62536948       -2.66753472
 C            0.68269289        1.48942622       -3.56522633
 C           -1.65176064        2.15985020       -2.12470342
 C           -0.51251717       -0.62666176       -3.69717225
 C           -1.90258176       -1.01707588       -3.54761020
 C           -2.65781270        0.18590331       -3.22389933
 C           -0.49501434        0.81827231       -3.83417118
 C           -1.72213251        1.30236254       -3.22617636
