   70
C70 / DATE: 7/ 1/2024 / Origin: Program Fullerene / C70 from database
 C            1.39886109        0.00000000        4.54474169
 C            0.63329033       -1.17257729        4.16189368
 C            1.49137793       -2.01407807        3.36776777
 C            2.62211501        0.00000000        3.75973311
 C            2.67023875       -1.23593737        3.01732232
 C            2.67023875        1.23593737        3.01732232
 C            0.63329033        1.17257729        4.16189368
 C            1.49137793        2.01407807        3.36776777
 C           -0.59797473       -0.72810419        3.56041481
 C           -0.59797473        0.72810419        3.56041481
 C           -1.05858654       -1.38124501        2.42248167
 C            0.93303306       -2.78697960        2.35991327
 C           -0.35810725       -2.47220211        1.88417999
 C            1.85379341       -3.30912503        1.46695504
 C            3.05870670       -1.21553379        1.67850756
 C            2.89177901       -2.41117389        0.98664440
 C            3.05870670        1.21553379        1.67850756
 C            2.99860159       -0.00000000        0.97076485
 C            2.89177901        2.41117389        0.98664440
 C            0.93303306        2.78697960        2.35991327
 C            1.85379341        3.30912503        1.46695504
 C           -1.05858654        1.38124501        2.42248167
 C           -0.35810725        2.47220211        1.88417999
 C           -1.94572180       -0.69833833        1.60936865
 C           -1.94572180        0.69833833        1.60936865
 C           -2.57801429       -1.38123115        0.58546479
 C           -0.81634663       -3.04013564        0.67522273
 C           -1.91777237       -2.47205997       -0.00169508
 C            1.37894311       -4.07768045        0.34796361
 C           -0.02431547       -3.98902336        0.02009711
 C            2.76637309       -2.38560218       -0.45230539
 C            2.12256642       -3.63071532       -0.81959918
 C            2.63442983        0.00000000       -0.39155882
 C            2.37262125       -1.19724536       -1.05286522
 C            2.76637309        2.38560218       -0.45230539
 C            2.37262125        1.19724536       -1.05286522
 C            1.37894311        4.07768045        0.34796361
 C            2.12256642        3.63071532       -0.81959918
 C           -0.81634663        3.04013564        0.67522273
 C           -0.02431547        3.98902336        0.02009711
 C           -2.57801429        1.38123115        0.58546479
 C           -1.91777237        2.47205997       -0.00169508
 C           -3.60937565       -0.72810060       -0.08040929
 C           -3.60937565        0.72810060       -0.08040929
 C           -3.96917265       -1.17254832       -1.40269673
 C           -2.14290906       -2.78683701       -1.35914087
 C           -3.02815818       -2.01398171       -2.09659956
 C           -0.08315349       -4.07764656       -1.41977090
 C            1.20316878       -3.63070015       -1.93118954
 C           -1.09317368       -3.30904701       -2.09608103
 C            1.47902421       -1.19723231       -2.13280508
 C            0.96315281       -2.38555969       -2.63241061
 C           -0.42669592       -2.41117650       -3.02563090
 C            1.47902421        1.19723231       -2.13280508
 C            0.87844818       -0.00000000       -2.51381958
 C            1.20316878        3.63070015       -1.93118954
 C           -0.08315349        4.07764656       -1.41977090
 C            0.96315281        2.38555969       -2.63241061
 C           -2.14290906        2.78683701       -1.35914087
 C           -1.09317368        3.30904701       -2.09608103
 C           -0.42669592        2.41117650       -3.02563090
 C           -3.96917265        1.17254832       -1.40269673
 C           -4.20165188       -0.00000000       -2.22650046
 C           -3.02815818        2.01398171       -2.09659956
 C           -2.46289629       -1.23593343       -3.18891233
 C           -1.07498012       -1.21554607       -3.31947941
 C           -0.39106203        0.00000000       -3.12771325
 C           -1.07498012        1.21554607       -3.31947941
 C           -3.20117126       -0.00000000       -3.28086009
 C           -2.46289629        1.23593343       -3.18891233
