   70
C70 / DATE: 7/ 1/2024 / Origin: Program Fullerene / C70 from database
 C            1.46694068        0.21290616        5.09136005
 C            0.72112162       -1.00336336        4.83796441
 C            1.62183128       -1.91406958        4.16967772
 C            2.64348493        0.18934816        4.23352975
 C            2.76253715       -1.14293043        3.69295649
 C            2.52770945        1.29998440        3.31137125
 C            0.64392952        1.32722923        4.66405838
 C            1.46561992        2.15722025        3.81182360
 C           -0.51946007       -0.64616931        4.16468072
 C           -0.59102971        0.80381317        4.10381224
 C           -0.93154138       -1.38462199        3.05770934
 C            1.10998057       -2.64748787        3.03621250
 C           -0.24034615       -2.55409946        2.71457613
 C            2.82347682       -1.30920443        2.25085222
 C            2.06456674       -2.50105224        1.95161641
 C            2.62602086        1.08938309        1.93055057
 C            2.67674651       -0.21122965        1.40841145
 C            2.24537692        2.13313109        1.08944911
 C            0.81419471        2.95408479        2.89222444
 C            1.45203039        3.15580389        1.61284916
 C           -1.10005090        1.41275183        2.95699186
 C           -0.57716076        2.65052461        2.57964887
 C           -1.74184837       -0.76372063        2.10203140
 C           -1.74511923        0.63328764        1.99383919
 C           -2.32641233       -1.53906517        1.09861654
 C           -0.61806945       -3.22137077        1.56025405
 C           -1.81282940       -2.80286112        0.85294055
 C            1.57948561       -2.68409900        0.66399441
 C            0.41160495       -3.42407230        0.55630107
 C            2.28201358       -0.43719165        0.08572240
 C            1.82631465       -1.70521183       -0.30747092
 C            2.25207250        1.94519488       -0.29202118
 C            2.19645252        0.63838558       -0.79811586
 C            1.79753349        3.00458708       -1.07212944
 C            0.42834472        3.73702798        0.77311233
 C           -0.82177283        3.15412535        1.23357772
 C            0.66933833        3.77264127       -0.58363347
 C           -2.20016106        1.23612955        0.81880436
 C           -1.57658959        2.39015317        0.34693736
 C           -3.08715645       -0.92437277        0.10971262
 C           -3.02148257        0.51791058       -0.03476141
 C           -3.14532566       -1.50467944       -1.22749183
 C           -1.65751423       -3.25207582       -0.51986192
 C           -0.24065783       -3.50162321       -0.72303394
 C           -2.35431732       -2.61469389       -1.54266518
 C            1.28822133       -1.87633352       -1.59223167
 C            0.36371623       -2.91282881       -1.81782018
 C            1.89574224        0.40202946       -2.14654571
 C            1.46035553       -0.86474733       -2.54847986
 C            1.57475079        2.80499625       -2.48331390
 C            1.73175655        1.47489967       -3.02201899
 C           -0.42238041        3.45337711       -1.47705799
 C           -1.41650044        2.58428824       -1.03242658
 C            0.20016334        3.21056809       -2.75637062
 C           -3.00046148        0.82754365       -1.45296751
 C           -3.28182934       -0.40004352       -2.17215653
 C           -2.04281882        1.71546415       -1.93721505
 C           -2.81471679       -0.54199148       -3.46761841
 C           -1.83616172       -2.73925834       -2.83236522
 C           -0.39647303       -2.91080196       -2.97600024
 C           -2.27251190       -1.82470324       -3.86694871
 C            0.95305722       -1.03202042       -3.84251387
 C            0.04398416       -2.12695805       -4.10080963
 C           -1.14172388       -1.58906632       -4.74776631
 C            0.73537434        1.37470926       -4.06668280
 C           -0.37108141        2.20352050       -3.61768001
 C           -1.56355722        1.58080799       -3.25245220
 C           -1.96575936        0.49540602       -4.03191085
 C            0.43660352        0.12186412       -4.56259510
 C           -0.95763262       -0.15707931       -4.85303756
