   70
C70 / DATE: 7/ 1/2024 / Origin: Program Fullerene / C70 from database
 C            1.57430821        0.09437158        4.57289008
 C            0.79128233       -1.12514904        4.51690544
 C            1.39321014       -2.00653777        3.53238108
 C            2.62685434       -0.01135194        3.57957883
 C            2.52939330       -1.30758511        2.94571637
 C            2.55154663        1.15601550        2.73481351
 C            0.70712110        1.19149835        4.17753654
 C            1.33936664        1.88110464        3.06918943
 C           -0.59594561       -0.75055257        4.34270337
 C           -0.62565879        0.65833795        3.97888216
 C           -1.41859148       -1.62277117        3.65266667
 C            0.56307477       -2.75932902        2.70267314
 C           -0.81900651       -2.72113644        2.90090077
 C            1.06689460       -3.18923162        1.47835502
 C            2.73541809       -1.39889955        1.57187418
 C            2.22100637       -2.50857540        0.91312783
 C            2.85186783        1.02441909        1.39098627
 C            3.03939198       -0.24757078        0.83179573
 C            2.42423584        2.04273686        0.55389049
 C            0.54411290        2.33667758        2.01816225
 C            1.15654586        2.58489226        0.78222614
 C           -1.33410753        1.05550165        2.84674622
 C           -0.83182327        2.09513960        2.05992160
 C           -2.46772496       -1.07064938        2.81978182
 C           -2.34882897        0.23343444        2.34402358
 C           -1.72339930       -3.03208768        1.80089785
 C           -2.85862889       -2.12206115        1.90588082
 C            0.16259406       -3.51468770        0.38610044
 C           -1.20994380       -3.36254703        0.54637836
 C            2.06433692       -2.47777080       -0.52889100
 C            0.78827613       -3.08821709       -0.85746768
 C            3.15291067       -0.33754957       -0.56042067
 C            2.46696103       -1.35482023       -1.23254789
 C            2.97419586        2.08306179       -0.71397814
 C            3.46456049        0.82979645       -1.25635033
 C            2.26513830        2.76981601       -1.77073306
 C            0.37990911        3.03228623       -0.29407793
 C            0.92041723        3.08101444       -1.58380593
 C           -1.62915365        2.61128356        1.05194273
 C           -0.99381069        3.18632689       -0.12026455
 C           -3.03644035        0.60443752        1.18393990
 C           -2.77730010        1.84294821        0.60411999
 C           -3.55639560       -1.77601270        0.76233702
 C           -3.68677778       -0.36723403        0.41926798
 C           -1.99897027       -3.18137705       -0.58648907
 C           -3.27572145       -2.50203769       -0.45922378
 C            0.00289939       -2.53223651       -1.86509968
 C           -1.37734015       -2.73101446       -1.82400168
 C            1.84620652       -1.08301222       -2.45129197
 C            0.52696622       -1.50295326       -2.65780442
 C            3.26873989        0.87155731       -2.69358332
 C            2.71209625        2.17416131       -3.01900757
 C            2.40845634       -0.12741174       -3.28890222
 C            1.75692571        1.98330488       -4.08963173
 C            1.56670036        0.54892011       -4.25627923
 C            0.06818086        3.18326800       -2.68721301
 C            0.44748364        2.58832098       -3.95765217
 C           -1.88708947        2.97882498       -1.24613004
 C           -2.86021894        1.97798230       -0.84147595
 C           -1.34782987        2.91343419       -2.51946822
 C           -3.67002488       -0.25833631       -1.03274254
 C           -3.40636431       -1.57694972       -1.57013991
 C           -2.25436071       -1.74287421       -2.42927919
 C           -3.04176820        0.83593106       -1.61660790
 C           -0.35148768       -0.69880231       -3.39183359
 C            0.14266117        0.28615410       -4.23568331
 C           -0.53976199        1.56492998       -4.25589100
 C           -1.65940691        1.75927160       -3.34722365
 C           -1.67869121       -0.61572190       -2.99086388
 C           -2.23967377        0.64389375       -2.74653739
