   70
C70 / DATE: 7/ 1/2024 / Origin: Program Fullerene / C70 from database
 C            1.19115610       -0.02865975        4.29363346
 C            2.49664586       -0.36514671        3.77615426
 C            2.47774505       -1.77175547        3.40895504
 C            0.37618464       -1.23408198        4.24938386
 C            1.09865693       -2.22283960        3.48365423
 C           -0.93948611       -0.84676940        3.79807679
 C            0.43474638        1.02436039        3.64232439
 C           -0.94977398        0.60171777        3.66664578
 C            0.92673959        1.62574712        2.48488390
 C            2.99594481        0.37050109        2.63521669
 C            2.26309073        1.43008226        2.10206964
 C            3.19024526       -1.91302747        2.15034221
 C            3.60066742       -0.58553364        1.72176960
 C            2.69141459       -2.79313845        1.20656128
 C            0.50777999       -2.77078449        2.34743646
 C            1.33992524       -3.31142427        1.36647235
 C           -1.58135303       -1.59899179        2.81999685
 C           -0.84160320       -2.51604250        2.05507884
 C           -2.75356662       -1.05496194        2.29975336
 C           -1.83496813        1.16240743        2.75760288
 C           -2.92427768        0.38688598        2.37286742
 C            0.01056681        2.19979883        1.59328571
 C           -1.36216921        2.13533439        1.87472999
 C            0.44930638        2.73927735        0.37975294
 C            2.70384557        1.94109055        0.88913257
 C            1.79180952        2.68980032        0.04989693
 C            3.63832669       -0.26573429        0.36458216
 C            3.49338924        1.07942960        0.02412406
 C            2.88035536       -2.49477458       -0.19911738
 C            3.39044676       -1.25844085       -0.59543653
 C            0.81862984       -3.59921045        0.04154274
 C            1.75226706       -3.05386460       -0.92762417
 C           -1.40210538       -3.06314273        0.89873094
 C           -0.53893221       -3.48434034       -0.18911219
 C           -3.26829166       -1.49554561        1.01458718
 C           -2.57206002       -2.45013045        0.29893634
 C           -3.72626636        0.79993240        1.23910325
 C           -3.78802746       -0.32923330        0.32198509
 C           -2.26963743        2.74495411        1.00859668
 C           -3.52692731        2.06815596        0.71598818
 C           -0.47274741        3.05177856       -0.61482446
 C           -1.78277894        3.31797603       -0.23284010
 C           -0.13731535        2.85236543       -1.96541025
 C            2.15686147        2.45407741       -1.33380683
 C            3.22884486        1.46489730       -1.34760123
 C            1.14916641        2.41091100       -2.29602390
 C            3.24072238       -0.90603644       -1.93705783
 C            3.25261635        0.49223098       -2.33075146
 C            1.28845981       -2.37524838       -2.05023179
 C            2.20674995       -1.57114440       -2.71585330
 C           -0.99641135       -2.82161345       -1.39900719
 C           -2.27917061       -2.20840911       -1.10538712
 C           -0.08697262       -2.13772564       -2.20082964
 C           -3.49482670       -0.12492142       -1.02591015
 C           -2.58600077       -0.97484377       -1.67321080
 C           -3.81933924        2.27455172       -0.68979282
 C           -2.85537743        3.22992475       -1.20196999
 C           -3.79661888        1.12039978       -1.57133912
 C           -1.14079139        2.70515252       -2.92526758
 C           -2.53437678        2.83402022       -2.55269581
 C           -3.15603767        1.53767444       -2.79867812
 C           -0.54696067       -1.07251833       -2.98532384
 C           -1.80346772       -0.50657669       -2.73579335
 C           -1.07620537        1.56487622       -3.81413112
 C           -2.14169149        0.68261708       -3.37861710
 C            1.32420487        1.63232874       -3.44253500
 C            2.38063885        0.63691835       -3.47991246
 C            1.74760972       -0.65043655       -3.72918677
 C            0.16487320        1.01076522       -4.05754932
 C            0.32590249       -0.41589241       -3.85102532
