   70
C70 / DATE: 7/ 1/2024 / Origin: Program Fullerene / C70 from database
 C            1.62239084       -0.04966783        4.55736328
 C            0.77398163       -1.20225285        4.33281502
 C            1.30333876       -1.94169127        3.20039776
 C            2.63859177       -0.04092034        3.51932549
 C            2.39566811       -1.16076961        2.64307393
 C            2.64739011        1.27639434        2.93349865
 C            0.79978997        1.13322626        4.37090292
 C            1.50504659        2.00272138        3.46753731
 C           -0.59246703       -0.72725024        4.25067389
 C           -0.52481117        0.70185953        3.98680307
 C           -1.47977052       -1.47988189        3.50715532
 C            0.39696852       -2.53922305        2.32674083
 C           -0.95001582       -2.55634837        2.68133409
 C            0.72831496       -2.64314822        0.97573518
 C            2.42386359       -0.95780427        1.27030586
 C            1.79240208       -1.89193933        0.46465113
 C            2.90292754        1.41454121        1.57053205
 C            2.73592018        0.29884911        0.73035837
 C            2.65784408        2.68025686        1.05024112
 C            0.78008544        2.76151947        2.56500828
 C            1.56317823        3.43347014        1.64181764
 C           -1.09001263        1.21145191        2.81204441
 C           -0.48404758        2.29355700        2.14978507
 C           -2.43286744       -0.78145529        2.67323313
 C           -2.10085531        0.47940919        2.17639815
 C           -1.94681659       -2.82103124        1.65780375
 C           -2.96475142       -1.78219868        1.77352952
 C           -0.17028743       -3.24941223        0.09462380
 C           -1.53787359       -3.23154198        0.39093114
 C            0.25651627       -3.52301987       -1.20362535
 C            2.01335937       -1.85310267       -0.90341991
 C            1.46331002       -2.87039763       -1.67931819
 C            2.62084574        0.47239708       -0.65913774
 C            2.44174849       -0.64899001       -1.47851041
 C            2.58584436        2.86874503       -0.38138315
 C            2.46977757        1.75617471       -1.20725503
 C            0.91513691        4.17868179        0.59599051
 C            1.71558525        4.01135751       -0.60336189
 C           -1.00732058        2.71496005        0.91727100
 C           -0.44108746        3.81144963        0.26652962
 C           -2.54468166        0.85402497        0.90346168
 C           -1.89216996        1.88379162        0.22317981
 C           -3.61375669       -1.35790888        0.62963441
 C           -3.40670579        0.01258002        0.18888656
 C           -2.46683303       -3.16511877       -0.64584676
 C           -3.55669562       -2.21229628       -0.54173763
 C           -0.70623335       -3.51487305       -2.29525965
 C           -2.01041078       -3.13867351       -2.02102941
 C            1.34203246       -2.71332418       -3.11154947
 C           -0.05563056       -2.91916039       -3.44831797
 C            2.35087250       -0.45035826       -2.85366253
 C            1.75207191       -1.46197569       -3.70382084
 C            1.90391049        1.91472681       -2.47950500
 C            1.85220799        0.82044511       -3.32801902
 C            0.79731218        3.97078269       -1.71847412
 C           -0.55213411        3.91595913       -1.17399515
 C            0.91856946        2.88116393       -2.66345732
 C           -1.95571989        1.92107426       -1.17687589
 C           -1.26421548        2.87926494       -1.88839201
 C           -0.42447061        2.42913643       -2.97966673
 C           -3.32523637       -0.00193015       -1.26188165
 C           -3.50454980       -1.35924419       -1.71519320
 C           -2.52272313       -1.91273550       -2.62056106
 C           -2.36438824        0.79111932       -1.86301854
 C           -0.56827812       -1.65633121       -3.94759400
 C            0.57771370       -0.86110930       -4.32194050
 C            0.58304902        0.54046792       -3.97953356
 C           -0.56612274        1.12487147       -3.45559965
 C           -1.63541925       -1.06154687       -3.27660884
 C           -1.56820634        0.29820228       -2.91202157
