   70
C70 / DATE: 7/ 1/2024 / Origin: Program Fullerene / C70 from database
 C            1.40931143       -0.13286624        4.05648902
 C            2.50543820       -0.33688351        3.12789359
 C            2.33837134       -1.65023306        2.51849516
 C            0.55499158       -1.30471046        4.00307686
 C            1.09481760       -2.21153801        3.00315664
 C           -0.81726306       -0.85251995        3.86278760
 C            0.57131683        1.03825325        3.89936851
 C           -0.78560092        0.58380660        3.63968108
 C            1.06473674        2.11024510        3.17814701
 C            2.94301088        0.72371271        2.33650250
 C            2.31562456        1.96936970        2.43931058
 C            3.67536337        0.42669713        1.18906156
 C            2.70175586       -1.82007189        1.18647193
 C            3.64481781       -0.93321800        0.67599231
 C            1.84955809       -2.52226328        0.31395187
 C            0.22682971       -2.80169153        2.09812157
 C            0.68326438       -3.12738354        0.82106545
 C           -1.68436263       -1.62436473        3.10761479
 C           -1.14567952       -2.73628527        2.34144303
 C           -2.66395318       -0.96494100        2.26356434
 C           -1.51377343        1.13314062        2.58104354
 C           -2.57121963        0.40414300        2.02643392
 C            0.15347472        2.86968674        2.34425352
 C           -1.07054602        2.31541746        1.97083041
 C            2.21912796        2.82214856        1.26289802
 C            0.95973341        3.54398505        1.34514122
 C            3.61021865        1.32251893        0.04429867
 C            2.65923582        2.33374796        0.03681048
 C            3.87078966       -0.86888807       -0.74812361
 C            3.80535179        0.52719136       -1.14972152
 C            2.12989097       -2.55762756       -1.06734425
 C            2.99284247       -1.61667704       -1.61275128
 C            1.20213979       -3.09883035       -1.94722787
 C           -0.18023074       -3.81960220       -0.02457937
 C            0.10733601       -3.88589922       -1.43718991
 C           -2.08132984       -3.00937480        1.26477758
 C           -2.95664732       -1.85433130        1.14833955
 C           -1.61195101       -3.61675755        0.11517436
 C           -3.22495106       -1.29908723       -0.10204470
 C           -3.27305125        0.92210352        0.94573162
 C           -3.63734988        0.03204207       -0.14732970
 C           -1.72548346        2.82006101        0.84358180
 C           -2.87408894        2.19195237        0.37454263
 C            0.34808732        3.95925223        0.17574592
 C           -1.08231064        3.75795884        0.03507363
 C            1.89273756        2.56236668       -1.11193309
 C            0.94951273        3.58617666       -1.09199475
 C            2.83431791        0.63734281       -2.21890384
 C            2.46880086       -0.70745952       -2.61971487
 C            1.83813613        1.59665841       -2.12690711
 C            0.69409822       -2.24931382       -3.01355309
 C            1.19235424       -0.94871378       -3.12303200
 C           -1.09739861       -3.49912093       -2.15581443
 C           -2.10906697       -3.16201759       -1.16939153
 C           -2.76604368       -1.93533820       -1.26313534
 C           -0.73082621       -2.50663322       -3.14978726
 C           -2.71575601       -1.24055278       -2.47320932
 C           -1.58783678       -1.44172532       -3.37171130
 C           -3.55697304        0.78588066       -1.38524450
 C           -3.14423460        2.14103577       -1.05652153
 C           -3.06056790        0.16982480       -2.52347355
 C           -1.36872715        3.78848751       -1.38805180
 C           -0.10656505        3.59806088       -2.08751267
 C           -2.32628981        2.84350208       -1.93240236
 C            0.66133010        1.40544975       -2.85112219
 C            0.30255790        0.12148772       -3.27940627
 C           -1.02082707       -0.13508864       -3.63708506
 C           -2.05230516        0.84181757       -3.33225473
 C           -0.25577978        2.44675577       -2.95332326
 C           -1.67229226        2.13972831       -3.02507421
