   70
C70 / DATE: 7/ 1/2024 / Origin: Program Fullerene / C70 from database
 C            1.27621537       -0.07390905        4.46717683
 C            2.61542801       -0.30169708        3.95812705
 C            2.65407307       -1.63648086        3.38703959
 C            0.47706183       -1.25010958        4.16679090
 C            1.31057817       -2.18975139        3.44278063
 C           -0.75714848       -0.80835769        3.54789877
 C            0.54131012        1.09148996        4.00879818
 C           -0.74469794        0.64213711        3.49981126
 C            1.21414631        2.09857379        3.33101819
 C            3.15720069        0.61893643        2.97480399
 C            2.54868159        1.85366658        2.79126990
 C            3.31971255       -1.55635880        2.09761569
 C            3.54085716       -0.14985116        1.80140531
 C            2.88599579       -2.39491619        1.08362888
 C            0.79484122       -2.80027505        2.30402650
 C            1.68104340       -3.17670566        1.29570336
 C           -1.23632414       -1.49834621        2.44387822
 C           -0.55724126       -2.63207644        1.99069988
 C           -2.12541486       -0.85145490        1.58889082
 C           -1.30835836        1.27912943        2.39499588
 C           -2.14836641        0.54909400        1.54654607
 C            0.48631251        2.88884295        2.35533077
 C           -0.79442956        2.50863641        1.97014838
 C            2.60747006        2.47214905        1.47827677
 C            1.42887807        3.30865631        1.33237522
 C            3.24623311        0.35385911        0.53309918
 C            3.04017016        1.72932917        0.38375375
 C            2.81942282       -1.88608593       -0.27394884
 C            2.88734224       -0.52009937       -0.50238005
 C            1.16586062       -3.52673457       -0.01499361
 C            1.81683124       -2.65815561       -0.98445633
 C           -1.08443411       -3.33428441        0.91164412
 C           -0.18937620       -3.77068618       -0.15002322
 C           -2.79759496       -1.59812122        0.62391638
 C           -2.30520240       -2.85477481        0.28152854
 C           -3.68279012       -0.96129660       -0.23585835
 C           -2.85047497        1.21230417        0.53695911
 C           -3.63353822        0.48239350       -0.35031512
 C           -1.32618457        3.11073981        0.83816964
 C           -2.41271065        2.46577719        0.12776316
 C            0.95946393        3.58224004        0.05029270
 C           -0.42024293        3.68192795       -0.14840389
 C            2.79382475        2.24394789       -0.88332225
 C            1.79675077        3.29514024       -1.02638244
 C            2.35875923       -0.01256001       -1.68600725
 C            2.60043949        1.32135782       -1.98275870
 C            1.04512763       -2.03580568       -1.96503655
 C            1.35771127       -0.72810636       -2.36788707
 C           -0.82979036       -3.44704257       -1.41016107
 C           -2.23661620       -3.23846560       -1.11930505
 C           -0.18695128       -2.59738717       -2.30901470
 C           -3.89307954       -1.50312641       -1.56955554
 C           -3.01638282       -2.55925034       -2.04426092
 C           -3.56424022        0.80968975       -1.76650109
 C           -3.82778229       -0.40110684       -2.51663102
 C           -2.23443969        2.71574090       -1.29444992
 C           -1.00424067        3.46571525       -1.46707399
 C           -2.59101099        1.71378481       -2.19565386
 C            1.25007042        3.19742064       -2.36737063
 C            1.79033287        1.99047441       -2.97363453
 C           -0.18896561        3.18189589       -2.54650166
 C            0.60693416       -0.11308940       -3.38414570
 C           -1.72366173        1.37572996       -3.25196419
 C            0.69407667        1.26264768       -3.56359819
 C           -0.51480175        2.05453232       -3.39973892
 C           -0.93302492       -2.02615914       -3.32968895
 C           -2.38643587       -2.09124875       -3.26708792
 C           -2.90889743       -0.76736591       -3.56590647
 C           -0.57366911       -0.70924621       -3.81163656
 C           -1.78063670        0.10252863       -3.82050907
