   70
C70 / DATE: 7/ 1/2024 / Origin: Program Fullerene / C70 from database
 C            1.20518053        0.10075966        4.99372967
 C            2.45208270        0.12681026        4.25225274
 C            2.54075934       -1.12375174        3.52328674
 C            0.42214837       -1.02453360        4.50047748
 C            1.23325638       -1.74559350        3.53926499
 C           -0.86470442       -0.51832703        4.07153024
 C            0.35608998        1.27433922        4.97714454
 C           -0.95773667        0.86112472        4.50967529
 C            0.76275641        2.42693313        4.19159314
 C            2.71192021        1.20524899        3.30592280
 C            1.87690850        2.31233982        3.26101687
 C            3.12484077       -0.83571564        2.23219636
 C            3.16014878        0.60419203        2.06154886
 C            2.70731327       -1.57450308        1.14166649
 C            0.67659223       -2.10973539        2.31639738
 C            1.53341697       -2.32973095        1.23881153
 C           -1.32241708       -0.84020986        2.79840958
 C           -0.66404282       -1.82015118        2.05158701
 C           -2.16454168        0.05403289        2.14078142
 C           -1.42262192        1.85221373        3.55856322
 C           -0.39461888        2.86816399        3.43620159
 C           -2.03237094        1.42406974        2.38738742
 C            1.43820589        2.81829689        1.97095837
 C            0.04843788        3.22181445        2.09744185
 C            2.75095415        1.12669843        0.82982308
 C            1.84159766        2.19012190        0.79238774
 C            3.03426961       -1.07034749       -0.10284741
 C            2.87449432        0.30782511       -0.30124197
 C            2.88629043       -1.93996670       -1.16754130
 C            1.00227520       -2.87201169        0.06720492
 C            1.82350792       -2.91996302       -1.06265565
 C           -1.18832999       -2.17388231        0.80830491
 C           -0.38456235       -2.88064273       -0.09480119
 C           -2.75949326       -0.34663978        0.94578706
 C           -2.36009688       -1.55055223        0.36424551
 C           -3.34660481        0.63298886        0.14573012
 C           -1.99516254        2.28142443        1.29444057
 C           -0.80329057        2.95525438        1.03183110
 C           -2.83335212        1.98616291        0.23204122
 C            1.07536262        2.38346805       -0.35739215
 C           -0.24588552        2.83100203       -0.23779657
 C            2.41951502        0.78124270       -1.53758079
 C            1.51422273        1.84345557       -1.56378270
 C            2.88373138       -1.40953902       -2.50993211
 C            2.60408453       -0.00058514       -2.67750207
 C            1.24437711       -3.09126735       -2.38545705
 C            1.90503422       -2.15855449       -3.28123376
 C           -0.92711649       -3.33319308       -1.29461257
 C           -0.12378629       -3.27407497       -2.50269511
 C           -2.94505312       -1.94942149       -0.83461668
 C           -2.27418441       -2.93747577       -1.65346191
 C           -3.62909730        0.35826364       -1.25370629
 C           -3.49426539       -0.94009391       -1.72384443
 C           -2.43081798        2.37311077       -1.10753787
 C           -1.10486601        2.74021192       -1.33161497
 C           -3.10486235        1.47208812       -2.03174247
 C            0.80393258        2.13471259       -2.72728494
 C           -0.56287768        2.60565320       -2.60452351
 C            1.68044202        0.11711970       -3.79030232
 C            1.10012089       -1.20089813       -4.01693181
 C            0.86666595        1.23323891       -3.86697029
 C           -0.86648967       -2.48854696       -3.47805711
 C           -2.24426781       -2.43995701       -3.02163491
 C           -2.95333066       -1.17484617       -3.05386459
 C           -0.28646588       -1.35192647       -4.04538092
 C           -2.54915729        1.24461038       -3.28315162
 C           -1.35001973        1.97474066       -3.65095649
 C           -0.48006080        1.07138213       -4.38216234
 C           -2.41152814       -0.11803701       -3.77618851
 C           -1.08285711       -0.25044101       -4.35863545
