   70
C70 / DATE: 7/ 1/2024 / Origin: Program Fullerene / C70 from database
 C            1.30940594       -0.10122459        4.28822610
 C            2.58433854       -0.33358525        3.65266458
 C            2.56006355       -1.67566544        3.09279770
 C            0.47780761       -1.27659604        4.06725179
 C            1.19343116       -2.15381731        3.16895955
 C           -0.83856977       -0.81031187        3.67838189
 C            0.53045870        1.04935656        3.88266524
 C           -0.85467258        0.62454241        3.89513799
 C            0.96803331        1.87023824        2.84163452
 C            3.00923713        0.56296272        2.59736369
 C            2.17829170        1.60311541        2.17545093
 C            3.19802909       -1.61826062        1.78684666
 C            3.66995113       -0.25660975        1.59889278
 C            2.59903006       -2.27539335        0.71377937
 C            0.58119667       -2.56449112        1.99391938
 C            1.38766062       -2.94365803        0.92834604
 C           -1.43750391       -1.31954962        2.52820933
 C           -0.77194695       -2.28923459        1.76192688
 C           -2.52058834       -0.62701950        1.98373813
 C           -1.77592062        1.38528469        3.19725344
 C           -2.71000267        0.71529143        2.30686058
 C            0.05119923        2.76144105        2.28025649
 C           -1.31507974        2.57818046        2.50810789
 C            0.46265777        3.60518317        1.25760168
 C            2.45112191        2.21430066        0.94631453
 C            1.64849232        3.25776443        0.50305065
 C            3.78144906        0.23508387        0.30864909
 C            3.21453773        1.53642548       -0.00303204
 C            2.96962240       -1.91370081       -0.58607934
 C            3.49436791       -0.64417905       -0.81268537
 C            2.39903302       -2.57834448       -1.66651615
 C            0.80817844       -3.66328687       -0.10242824
 C            1.42886417       -3.62147023       -1.40825476
 C           -1.38246166       -2.80992491        0.61349448
 C           -0.63009848       -3.56950747       -0.28217858
 C           -3.14938939       -1.12350751        0.85134734
 C           -2.59101509       -2.27866988        0.17703481
 C           -3.60945917       -0.18919199       -0.16492076
 C           -3.06561310        1.65277607        1.25105804
 C           -2.27225106        2.85322379        1.44663395
 C           -3.29989361        1.16420402       -0.03327103
 C           -0.51984850        4.12077743        0.31851474
 C           -1.86860743        3.58371901        0.34397394
 C            1.30393762        3.31636023       -0.91003981
 C            0.01019620        3.94260605       -1.02324975
 C            2.75498546        1.50825952       -1.38421159
 C            2.93397832        0.16322489       -1.88552880
 C            1.61681047        2.22898638       -1.72118962
 C            1.90967690       -1.78887124       -2.78717378
 C            1.96607080       -0.39682974       -2.70507849
 C            0.37767918       -3.51933170       -2.40476097
 C           -0.89613073       -3.46005489       -1.71019450
 C            0.72426704       -2.44462850       -3.31497906
 C           -2.82916619       -2.12133581       -1.25079692
 C           -3.50552666       -0.84627381       -1.45322938
 C           -1.86758699       -2.56841778       -2.15635232
 C           -3.22602586       -0.08728651       -2.57488590
 C           -2.91437805        1.91412555       -1.15477122
 C           -2.17396241        3.08598184       -0.98555090
 C           -0.99605019        3.28256337       -1.81570846
 C           -2.85503906        1.30669306       -2.41074129
 C            0.62206241        1.62722833       -2.51367357
 C            0.86535465        0.36915250       -3.10185083
 C           -0.62882983        2.25761117       -2.67671789
 C           -1.68269129        1.55017834       -3.23631663
 C           -0.29650342       -1.66410514       -3.82931542
 C           -1.65539825       -1.87555646       -3.35046153
 C           -2.38651790       -0.64968861       -3.61536641
 C           -0.10025662       -0.22912155       -3.91002984
 C           -1.41449271        0.36185988       -4.00480306
