   70
C70 / DATE: 7/ 1/2024 / Origin: Program Fullerene / C70 from database
 C            1.54918364        0.04473531        4.65346491
 C            0.75937742       -1.15945203        4.48823000
 C            1.24767906       -1.87002284        3.31797945
 C            2.58786759        0.02452602        3.64446225
 C            2.44226048       -1.18756016        2.85908691
 C            2.53628688        1.28792940        2.93533598
 C            0.68307861        1.17599828        4.36392935
 C            1.26207768        1.90411229        3.25801638
 C           -0.63005884       -0.76112832        4.50363009
 C           -0.66189300        0.67062745        4.21960080
 C           -1.52972733       -1.57004397        3.83229848
 C            0.32056875       -2.32703757        2.38313628
 C           -1.01665337       -2.43361032        2.77164280
 C            0.64369731       -2.29943873        1.02000179
 C            2.67717165       -1.08790998        1.49668487
 C            1.89133906       -1.82238588        0.60681056
 C            2.92211399        1.28824686        1.60267759
 C            3.29379019        0.06937851        1.03316902
 C            2.38140401        2.26423406        0.76764436
 C            0.45221467        2.30910658        2.20210743
 C            1.08916031        2.72905400        1.03560628
 C           -1.45949949        1.13320187        3.17199101
 C           -0.89361625        1.90309151        2.14111871
 C           -2.72923683       -0.94242891        3.32065138
 C           -2.64947346        0.45469174        2.93506255
 C           -2.04802024       -2.54343472        1.75778552
 C           -3.15118322       -1.69643982        2.15839230
 C           -0.33757579       -2.58098985        0.06602348
 C           -1.68784026       -2.53221685        0.42025671
 C           -0.00054429       -2.63855148       -1.28757205
 C            2.18857613       -1.74860494       -0.75732292
 C            1.26917658       -2.21194631       -1.70385588
 C            3.76714302        0.06859928       -0.26784106
 C            3.26185232       -0.95035873       -1.17035780
 C            2.92078136        2.39465923       -0.50882180
 C            3.77741066        1.32730049       -0.99083505
 C            2.07655921        2.81543312       -1.61431138
 C            0.32238714        3.28955311        0.02367887
 C            0.79451155        3.25806577       -1.35125796
 C           -1.65195217        2.20569185        0.99735787
 C           -1.10342029        3.02725597        0.01169897
 C           -3.30873634        0.58650911        1.65278469
 C           -3.65716957       -0.75015578        1.18583057
 C           -2.83545957        1.50826516        0.72727486
 C           -2.61870468       -2.07897280       -0.51381654
 C           -3.48014174       -1.03240423       -0.16367461
 C           -1.03722542       -2.79995426       -2.21177722
 C           -2.36452594       -2.33577127       -1.85384704
 C           -0.84085565       -2.46320300       -3.60524088
 C            1.53649447       -1.98948194       -3.05802624
 C            0.46229605       -2.01576577       -4.02898778
 C            3.27598574       -0.38642512       -2.51077398
 C            3.42303510        1.05136839       -2.36996378
 C            2.29534024        1.89768310       -2.72045876
 C            2.35256627       -0.85295507       -3.42711854
 C            0.32000017       -0.65649956       -4.53674822
 C            1.21164840        1.31537146       -3.37786668
 C            1.43866115        0.10465594       -4.02924963
 C           -0.29539431        2.78006497       -2.17924376
 C           -1.50216627        2.85813479       -1.37670323
 C           -0.09596540        1.69021024       -3.02916545
 C           -3.26297760        1.35771773       -0.59158748
 C           -3.63522256        0.02908475       -1.04717726
 C           -2.55692942        2.01799533       -1.67442915
 C           -2.76404542       -1.35731292       -2.85405724
 C           -1.78856586       -1.40910846       -3.92689666
 C           -1.01755258       -0.21410888       -4.21903507
 C           -1.19752621        0.91258088       -3.41917573
 C           -3.20284949       -0.11505078       -2.42387463
 C           -2.42098801        1.06559670       -2.76435156
