   70
C70 / DATE: 7/ 1/2024 / Origin: Program Fullerene / C70 from database
 C            1.35973641       -0.12740905        4.50609084
 C            2.61038251       -0.30117946        3.79237192
 C            2.55611685       -1.58023665        3.10578948
 C            0.51421726       -1.27333517        4.20856319
 C            1.22675858       -2.12905696        3.27516371
 C           -0.79572946       -0.77530364        3.82592002
 C            0.57557974        1.07287545        4.27429537
 C           -0.79958376        0.66067262        4.04177623
 C            1.11632506        2.11513537        3.52718763
 C            3.01867669        0.70390994        2.82633599
 C            2.35583044        1.92170050        2.78217827
 C            3.04329235       -1.38268182        1.75708002
 C            3.33716262        0.02750938        1.57876366
 C            2.41662652       -2.04405277        0.71474478
 C            0.55125484       -2.58974240        2.14957546
 C            1.25593935       -2.78764342        0.95781213
 C           -1.39773346       -1.29898513        2.68478424
 C           -0.82965217       -2.42471854        2.09052963
 C           -2.29331612       -0.51705274        1.94708766
 C           -1.63111168        1.45075936        3.26152767
 C           -2.49961992        0.81035495        2.28822954
 C            0.23967918        2.95574203        2.72570474
 C           -1.11384655        2.66818643        2.65412693
 C            2.21413859        2.59656626        1.50709289
 C            0.95117583        3.31851703        1.51310846
 C            3.01723980        0.62803032        0.35764970
 C            2.62401330        1.97141675        0.33194955
 C            2.64289434       -1.57317778       -0.56708064
 C            2.78814967       -0.19111321       -0.75948700
 C            2.27245674       -2.39776087       -1.61514080
 C            0.59314596       -3.38147266       -0.12438475
 C            1.17035963       -3.31627181       -1.39711682
 C           -1.52298004       -3.05276937        1.06917546
 C           -0.76377627       -3.67905499        0.00228684
 C           -2.74741201       -0.97647722        0.71228699
 C           -2.62122452       -2.33575431        0.45061998
 C           -2.96513011       -0.06294657       -0.33740851
 C           -2.75473692        1.76540317        1.23265583
 C           -1.81104540        2.86140734        1.39654663
 C           -3.02401513        1.31517147       -0.05570199
 C            0.26455813        3.47037693        0.30907546
 C           -1.13148059        3.33253979        0.27377420
 C            2.20588260        2.53585455       -0.86521246
 C            1.00680049        3.35951108       -0.86616299
 C            2.51849114        0.38916894       -2.00740838
 C            2.19795046        1.73672218       -2.07294141
 C            2.14879183       -1.84479804       -2.94212946
 C            2.14732149       -0.40719430       -3.08519153
 C            0.32966716       -3.28636068       -2.58893942
 C            0.92280196       -2.35825937       -3.52992067
 C           -1.61414709       -3.68653316       -1.17477177
 C           -2.75025076       -2.81963272       -0.90269292
 C           -1.04829353       -3.29941599       -2.45110584
 C           -3.06148968       -0.51492646       -1.66962974
 C           -2.83908876       -1.85267295       -1.96860022
 C           -1.83244107       -2.18342591       -2.96667082
 C           -2.87800480        0.37939004       -2.71591772
 C           -2.84853033        2.23896938       -1.08093565
 C           -1.79000249        3.22817230       -0.95094135
 C           -2.87939783        1.79810460       -2.45388788
 C            0.34284307        3.18327082       -2.14307373
 C            1.06128435        2.15230684       -2.88221804
 C           -1.03775900        3.23151633       -2.19360410
 C           -1.73514185        2.38013064       -3.13734354
 C            0.97173440       -0.03764318       -3.85900429
 C            0.13923000       -1.22492320       -3.98827366
 C           -1.21759230       -1.14646933       -3.67602603
 C           -1.83184825        0.10405847       -3.68742192
 C            0.36883935        1.19574949       -3.62854246
 C           -1.01096686        1.30125105       -3.78697261
