   70
C70 / DATE: 7/ 1/2024 / Origin: Program Fullerene / C70 from database
 C            1.58988338        0.06186259        4.52412370
 C            0.77047408       -1.12476237        4.36418979
 C            1.31977520       -1.91409842        3.27391640
 C            2.63758491        0.01052086        3.52266164
 C            2.54062315       -1.26168404        2.83284211
 C            2.56287902        1.21887774        2.72162230
 C            0.75550068        1.21102820        4.22624676
 C            1.37917266        1.94772589        3.14268965
 C           -0.61022893       -0.69559099        4.26982870
 C           -0.60531358        0.74144985        4.03971570
 C           -1.47428371       -1.47303633        3.52092923
 C            0.44517477       -2.44136675        2.32082686
 C           -0.91391063       -2.47212608        2.61836881
 C            0.86868978       -2.55514507        0.98990308
 C            2.83897646       -1.28408689        1.48161824
 C            2.18737381       -2.21672461        0.68235318
 C            2.83147820        1.10874308        1.35881532
 C            3.30735726       -0.11211849        0.88716219
 C            2.19031638        1.97033187        0.46123759
 C            0.56628110        2.48974525        2.16054638
 C            1.12712432        2.75548699        0.91418917
 C           -1.34477938        1.26699200        2.98044823
 C           -0.82002726        2.34456439        2.26795879
 C           -2.54031784       -0.81566343        2.79363906
 C           -2.39330251        0.52109301        2.42751987
 C           -1.87466698       -2.67014981        1.55338749
 C           -2.99406460       -1.77146117        1.80796597
 C           -0.06856003       -2.71456351       -0.04593800
 C           -1.42975538       -2.85030117        0.24821066
 C            0.35629942       -2.71141165       -1.38369079
 C            2.66281656       -2.40796898       -0.60585432
 C            1.71900904       -2.69028397       -1.66995533
 C            3.75520213       -0.18051057       -0.42200820
 C            3.63105158       -1.45150217       -1.11262282
 C            2.42373133        1.82288961       -0.91455688
 C            3.34427762        0.86485579       -1.34334538
 C            1.58365179        2.44310008       -1.84918004
 C            0.40417562        3.52024959        0.01290341
 C            0.56447640        3.27830032       -1.40491459
 C           -1.63305338        2.98776689        1.34755656
 C           -1.00988124        3.72871812        0.26567785
 C           -3.08365032        1.00715214        1.30789207
 C           -2.76293853        2.26331534        0.79667948
 C           -3.73515738       -1.31058781        0.73530653
 C           -3.77443766        0.12135595        0.47658483
 C           -2.36179541       -2.74111454       -0.77722332
 C           -3.57859087       -1.98276854       -0.53956534
 C           -0.55978854       -2.47069517       -2.41365415
 C           -1.91375464       -2.41807276       -2.11397795
 C           -0.14523529       -1.77191058       -3.54547424
 C            2.19264480       -2.02101868       -2.87320019
 C            3.31661135       -1.17953720       -2.50037126
 C            3.20580447        0.26173779       -2.65889242
 C            1.26567532       -1.52902560       -3.77894938
 C            1.43654677        1.88906594       -3.12058735
 C            2.25770519        0.76557165       -3.53473291
 C            1.40179797       -0.16174559       -4.25846376
 C           -0.87963411       -0.57265839       -3.91794659
 C            0.09050538        1.67757500       -3.63238913
 C            0.07235658        0.42234107       -4.33811395
 C           -0.76362717        3.10650224       -1.97458119
 C           -1.73274724        3.42698616       -0.95818647
 C           -2.74306529        2.44686479       -0.64762192
 C           -0.98152247        2.02455728       -2.81818027
 C           -3.70825651        0.31615486       -0.96519668
 C           -3.69106997       -0.98359105       -1.58807168
 C           -2.66497016       -1.25452086       -2.56060776
 C           -1.95750353       -0.20056541       -3.12368798
 C           -2.89889395        1.33194372       -1.46422816
 C           -1.95421999        1.05694262       -2.47954721
