   70
C70 / DATE: 7/ 1/2024 / Origin: Program Fullerene / C70 from database
 C            1.28087860        0.21425688        4.76978023
 C            2.50716767        0.01919690        4.02741309
 C            2.53904294       -1.36938163        3.60924868
 C            0.44624327       -0.96293129        4.55841457
 C            1.18750344       -1.88780435        3.72997191
 C           -0.84630553       -0.50845188        4.09804023
 C            0.47593107        1.37834516        4.46758547
 C           -0.89254796        0.92114281        4.30926712
 C            0.79623493        2.17822812        3.29477993
 C            2.75206800        0.82606895        2.84425187
 C            1.81897514        1.78569513        2.43590194
 C            3.17793526       -1.42178837        2.30595112
 C            3.34005389       -0.05161843        1.84521521
 C            2.72679961       -2.36930547        1.40284338
 C            0.58842881       -2.43426412        2.59779151
 C            1.42851581       -2.98276815        1.63760223
 C           -1.35954675       -1.00261675        2.90468775
 C           -0.70345411       -2.03865928        2.22078660
 C           -2.35004641       -0.26636237        2.25195696
 C           -1.49885253        1.73113531        3.27408541
 C           -0.46616454        2.60138969        2.72681465
 C           -2.37490883        1.12954176        2.37786078
 C           -0.53573024        2.92231695        1.37468544
 C            1.73742894        2.11267436        1.07940367
 C            0.58992486        2.73991338        0.56498203
 C            3.12907618        0.25445609        0.50641286
 C            2.64825169        1.52179752        0.20398825
 C            2.80542731       -2.07571781       -0.01609910
 C            2.96971410       -0.76669402       -0.43777274
 C            0.88789828       -3.35785724        0.35135723
 C            1.80950951       -2.88919913       -0.67427186
 C           -1.26886294       -2.54116919        1.03814331
 C           -0.47593972       -3.24326227        0.11819985
 C           -3.06665551       -0.88263423        1.23463203
 C           -2.54461984       -2.11304987        0.66900773
 C           -3.60744426       -0.08494203        0.14511582
 C           -2.74737084        1.89917556        1.28256670
 C           -1.79103209        2.87283802        0.78406075
 C           -3.39964572        1.28112971        0.14299313
 C           -1.90237910        2.90809274       -0.65680788
 C           -2.89655641        1.92356766       -1.05808117
 C            0.49876500        2.97962177       -0.81428116
 C           -0.76152732        3.05157699       -1.43278959
 C            2.67696099        1.92508566       -1.11853838
 C            1.65400527        2.83559206       -1.58273515
 C            2.58605786       -0.42571927       -1.73484934
 C            2.80674028        0.89024161       -2.12501128
 C            1.27774797       -2.47458866       -1.89008550
 C            1.63129678       -1.21386402       -2.40926519
 C           -0.89031796       -3.37066902       -1.20645315
 C            0.06733977       -3.05471136       -2.25450704
 C           -2.95430486       -2.15819352       -0.72309150
 C           -3.42572996       -0.82959824       -1.08619856
 C           -2.18753466       -2.87244814       -1.62588862
 C           -2.67511509        1.18270626       -2.21864015
 C           -2.91612551       -0.19851800       -2.22353239
 C           -0.89997859        2.77169860       -2.79098918
 C           -1.85584020        1.75189273       -3.19595090
 C            1.56735450        2.65717036       -3.01995017
 C            2.21305232        1.39085492       -3.33997173
 C            0.26475281        2.65575316       -3.63969895
 C            0.97595677       -0.71861230       -3.55621174
 C           -1.21461899        0.91619976       -4.19897950
 C            1.25065503        0.56340835       -4.02686092
 C            0.13502992        1.41986834       -4.39245992
 C           -0.66199697       -2.53874102       -3.38535740
 C           -2.04912660       -2.36616712       -2.98037496
 C           -2.41522015       -0.98750129       -3.25720739
 C           -0.21976311       -1.29839824       -3.97635246
 C           -1.39346131       -0.45442519       -4.13653452
