   70
C70 / DATE: 7/ 1/2024 / Origin: Program Fullerene / C70 from database
 C            1.63328110       -0.15987791        5.53694310
 C            0.75068611       -1.29816100        5.72831700
 C            1.30976278       -2.41640120        4.99214696
 C            2.64311855       -0.53366031        4.56093857
 C            2.45628632       -1.92941037        4.24126356
 C            2.58691517        0.42895313        3.47493791
 C            0.84861771        0.91213740        4.95296725
 C            1.56965285        1.41366509        3.79468002
 C           -0.53183921       -0.97115030        5.12611444
 C           -0.50118270        0.42533502        4.73745932
 C            0.31501203       -2.85138851        4.02647748
 C           -0.82048606       -1.95593031        4.09861804
 C            2.24835570       -2.28365811        2.85202897
 C            0.97879046       -2.97723389        2.74781989
 C            2.66789181       -0.00445198        2.15384376
 C            2.55107584       -1.36788928        1.84626126
 C            2.32312514        0.91235924        1.16219994
 C            0.81998248        1.92635335        2.73856621
 C            1.37827495        1.89917946        1.45682167
 C           -1.11248717        0.78681787        3.54534648
 C           -0.56783072        1.85822887        2.84556161
 C           -1.36970396       -1.51146172        2.89866997
 C           -1.79462188       -0.18671895        2.80956977
 C            0.24025548       -2.73981599        1.59669216
 C           -1.03160881       -2.17259237        1.71493640
 C            2.11703323       -1.69363844        0.56300013
 C            0.95655551       -2.45558161        0.44189925
 C            2.49408170        0.53750785       -0.16188482
 C            2.42034797       -0.81874032       -0.47156557
 C            2.17540671        1.45657417       -1.15036452
 C            0.66902600        2.49598616        0.40684580
 C            1.10227966        2.31895386       -0.91174820
 C           -1.32808052        2.38184324        1.81621265
 C           -0.64898863        2.88054391        0.63539242
 C           -2.43647825        0.21773388        1.63970584
 C           -2.43678130        1.57967133        1.34230061
 C           -1.68186983       -1.78447880        0.54209576
 C           -2.55672967       -0.69923996        0.59218242
 C            0.25335261       -2.38061039       -0.75019054
 C           -1.11904547       -2.14006513       -0.68740988
 C            2.05222241       -1.18289909       -1.76639368
 C            0.94706266       -2.02659637       -1.90267081
 C            2.48500073        1.10264739       -2.45624707
 C            2.38468141       -0.30348761       -2.79379615
 C            1.91540195        1.86714132       -3.54475877
 C            0.24285991        2.66125514       -1.96586617
 C            0.72602913        2.64253288       -3.27044659
 C           -1.60649933        2.82527641       -0.45568716
 C           -2.73271475        2.01982620       -0.00682047
 C           -1.13712337        2.66396825       -1.75264720
 C           -3.20009252       -0.30551217       -0.57826124
 C           -3.29192629        1.11343868       -0.88944948
 C           -1.81696365       -1.87345417       -1.86725618
 C           -2.90567624       -1.00460723       -1.82051448
 C            0.27245221       -2.11640424       -3.11413078
 C           -1.17895820       -2.10199105       -3.08605126
 C            1.73326289       -0.40757313       -4.08710127
 C            1.60570915        0.94131064       -4.62094147
 C            0.70860265       -1.33042359       -4.25426993
 C           -0.20432660        2.41005543       -4.36084434
 C            0.35154779        1.36856852       -5.21311617
 C           -1.99014379        2.11434742       -2.71525990
 C           -3.01663953        1.26663778       -2.30517769
 C           -3.12067616       -0.05209764       -2.90105287
 C           -1.56917009        2.04220992       -4.03870448
 C           -1.64065762       -1.41398929       -4.28103722
 C           -0.47151076       -0.98909647       -5.03534632
 C           -0.68703628        0.38450724       -5.45411392
 C           -2.52325909       -0.27169978       -4.13445830
 C           -1.90289227        0.85642165       -4.81323174
