   70
C70 / DATE: 7/ 1/2024 / Origin: Program Fullerene / C70 from database
 C            1.65415007       -0.09517798        4.70378149
 C            0.82360250       -1.28489937        4.69345664
 C            1.41067179       -2.23239307        3.76042732
 C            2.63415840       -0.23246987        3.64212867
 C            2.46407860       -1.54026826        3.03481408
 C            2.53380361        0.93648585        2.78568361
 C            0.80861413        1.03595008        4.37095620
 C            1.41644327        1.73766063        3.25303201
 C           -0.55643850       -0.87020066        4.49614046
 C           -0.55157199        0.55502898        4.21055489
 C           -1.40206722       -1.70036252        3.77458489
 C            0.56621099       -3.08596731        3.06635883
 C           -0.87224372       -2.94303555        3.23839324
 C            0.81582669       -3.34094068        1.65751985
 C            2.51621924       -1.62666129        1.64641459
 C            1.81206317       -2.63712869        0.98013307
 C            2.68591655        0.76351288        1.41557765
 C            2.95854149       -0.51397117        0.92812443
 C            2.12376771        1.70542915        0.55316953
 C            0.57608365        2.30436342        2.30124972
 C            1.06417422        2.50079243        1.00823423
 C           -1.28694168        1.05028227        3.13861868
 C           -0.80102491        2.17993024        2.47882899
 C           -2.27498468       -1.12393169        2.76434821
 C           -2.21063554        0.23261795        2.47688598
 C           -1.50402702       -3.17841712        1.95219040
 C           -0.46685920       -3.50967255        1.00178146
 C           -2.36356318       -2.05217416        1.65275130
 C           -0.58038080       -3.03916191       -0.29469531
 C            1.77335518       -2.62372234       -0.41893647
 C            0.57888681       -2.98099084       -1.05519118
 C            3.22301523       -0.66225927       -0.42349013
 C            2.69990650       -1.83387114       -1.09435739
 C            2.40347115        1.61867749       -0.81204704
 C            3.02100354        0.47414349       -1.30591459
 C            1.76786267        2.47388642       -1.70279780
 C            0.27373473        3.20466247        0.09745715
 C            0.67410424        3.30116522       -1.23272754
 C           -1.63818124        2.81161195        1.57221796
 C           -1.04215225        3.50185964        0.44405355
 C           -2.73013079        0.67148363        1.26114946
 C           -2.74757204        2.04253599        1.04827273
 C           -2.36285684       -1.53826174        0.35818290
 C           -1.64790034       -2.20167527       -0.64225215
 C           -2.71681832       -0.20423695        0.16250092
 C           -1.71632180       -1.73178043       -1.95620664
 C            0.43012455       -2.80302592       -2.42322449
 C           -0.84850677       -2.30507400       -2.89018382
 C            2.47997488       -1.48444226       -2.48636237
 C            2.63634347       -0.04072006       -2.61092437
 C            1.46344856       -2.11790550       -3.17934360
 C            1.43505136        1.99894501       -3.03895936
 C            1.75410559        0.69093697       -3.40576231
 C           -0.32161714        3.37666856       -2.29553266
 C            0.14958729        2.57405145       -3.41216813
 C           -2.06041305        3.56385350       -0.58879530
 C           -3.06011204        2.55692675       -0.26518256
 C           -1.67246339        3.36522894       -1.97197124
 C           -2.78348620        0.29011759       -1.14484631
 C           -2.30007165       -0.48064647       -2.20806554
 C           -3.10662850        1.62799858       -1.36940652
 C           -2.52577345        2.31473024       -2.50782010
 C           -0.75990050        1.81123608       -4.13410469
 C           -2.20543129        0.10752436       -3.47380001
 C           -2.07623942        1.54886168       -3.57039826
 C           -0.61503870       -1.67091590       -4.17029188
 C            0.81259844       -1.40815355       -4.26537416
 C            0.98283499        0.03033688       -4.36218199
 C           -1.30905054       -0.44162733       -4.46932220
 C           -0.30633056        0.57664603       -4.74733698
