   70
C70 / DATE: 7/ 1/2024 / Origin: Program Fullerene / C70 from database
 C            1.12295025       -0.19083383        4.81706538
 C            2.36915292       -0.38587288        4.09965937
 C            2.23833634       -1.59704856        3.30306125
 C            0.27395555       -1.33562947        4.53338950
 C            0.87355957       -2.06514850        3.42980127
 C           -1.07960638       -0.84944321        4.38370751
 C            0.34042796        1.01062696        4.57123049
 C           -1.04200211        0.60580947        4.39816268
 C            0.85005015        2.01021061        3.75158308
 C            2.85088667        0.66548755        3.22311647
 C            2.18378840        1.88179180        3.17792472
 C            2.74810275       -1.31296635        1.97535167
 C            3.26162132        0.04465389        1.97532848
 C            2.03092757       -1.74357631        0.86392085
 C            0.13507771       -2.28636748        2.26791015
 C            0.80316221       -2.38728742        1.04139817
 C           -1.82359755       -1.24301405        3.20670976
 C           -1.25312458       -2.10786783        2.27581151
 C           -1.78100350        1.07753189        3.23386984
 C           -2.48940981       -0.06289396        2.69719147
 C           -0.00731523        2.60945440        2.73752508
 C           -1.17886740        1.96708878        2.35104338
 C            2.19134509        2.63164714        1.93712434
 C            0.85851594        3.17288979        1.72423966
 C            3.18681702        0.76955411        0.78996822
 C            2.87538819        2.13626060        0.83316733
 C            2.31470327       -1.16004743       -0.36951701
 C            2.99577304        0.06093399       -0.39905149
 C            1.65916007       -1.63415838       -1.50938256
 C            0.08367292       -2.78282508       -0.08473258
 C            0.64461476       -2.58673906       -1.34931420
 C           -1.93686509       -2.26687347        1.07426198
 C           -1.29725628       -2.93876759        0.03902395
 C           -2.82658151       -0.07595168        1.35552309
 C           -2.91234509       -1.31945658        0.75155268
 C           -1.53087751        1.93459759        0.99731125
 C           -2.49473078        1.01515000        0.54944179
 C            0.40266214        3.28341895        0.41668336
 C           -0.84268702        2.74130975        0.08169535
 C            2.67039827        2.81072590       -0.36610136
 C            1.37044641        3.43087463       -0.57609311
 C            3.16320752        0.72396786       -1.60369968
 C            3.05253983        2.16607515       -1.60418158
 C            1.85140601       -1.00150544       -2.74776319
 C            2.48031386        0.23424595       -2.78102923
 C            0.95856073       -1.25149301       -3.78103943
 C            0.00092208       -3.11551077       -2.46439642
 C            0.13673999       -2.43774264       -3.73322836
 C           -2.05418195       -3.29148892       -1.07300375
 C           -1.38882883       -3.50666700       -2.34259894
 C           -3.51728994       -1.37577591       -0.49098265
 C           -3.25601348       -2.52533536       -1.33498019
 C           -2.85038970        0.96779142       -0.80721367
 C           -3.45550394       -0.18372983       -1.31880437
 C           -1.27270515        2.79774611       -1.23934356
 C           -2.27725755        1.86196449       -1.70333964
 C            1.01267395        3.27100835       -1.97500306
 C            2.08408442        2.54124296       -2.62144124
 C            1.75868668        1.34855902       -3.37737924
 C           -0.29789164        2.96507740       -2.30509295
 C            0.12914103       -0.14851580       -4.24182796
 C           -1.87926225        1.39171037       -3.02421901
 C            0.44959437        1.13356485       -3.80391434
 C           -0.57250993        1.95793100       -3.32394280
 C           -1.19583677       -2.06046926       -4.17534924
 C           -2.14288773       -2.79666628       -3.36803260
 C           -3.19929609       -2.06138460       -2.70823422
 C           -3.14271172       -0.60810143       -2.67619846
 C           -1.24838814       -0.60613863       -4.18983822
 C           -2.16614225        0.08239126       -3.39448474
