   70
C70 / DATE: 7/ 1/2024 / Origin: Program Fullerene / C70 from database
 C            1.26547274        0.04248234        4.31436293
 C            2.58250909       -0.24627849        3.80296838
 C            2.60135398       -1.63447498        3.37092891
 C            0.44561319       -1.14795771        4.14683484
 C            1.25257088       -2.16212619        3.49680178
 C           -0.79913942       -0.74950798        3.51705698
 C            0.53932627        1.15811770        3.74539546
 C           -0.79910718        0.69662009        3.41309329
 C            1.17060682        2.04828204        2.87585906
 C            3.08735803        0.56298566        2.71374096
 C            2.43792640        1.74179558        2.34452124
 C            3.25628278       -1.69590434        2.07369860
 C            3.54006812       -0.33246109        1.66040094
 C            2.77719867       -2.59542158        1.13452724
 C            0.71010405       -2.86557437        2.42600383
 C            1.57628767       -3.34784952        1.44713299
 C           -1.27560604       -1.49281299        2.44808964
 C           -0.63902706       -2.68716504        2.10524299
 C           -2.12695424       -0.88141365        1.52959608
 C           -1.46217252        1.30542488        2.35179252
 C           -2.14516799        0.51619428        1.42137865
 C            0.34271813        2.95501579        2.21586825
 C           -1.04240742        2.57841542        1.97646230
 C            0.81514491        3.67780331        1.04978970
 C            2.83476728        2.30648647        1.13348182
 C            2.04764957        3.35288541        0.51031257
 C            3.34669269        0.05646777        0.33619916
 C            3.31160581        1.42018270        0.08224725
 C            2.65424066       -2.17109496       -0.24999371
 C            2.71589201       -0.81787451       -0.55566036
 C            1.03204564       -3.81145383        0.18725129
 C            1.62657359       -2.99143239       -0.86282108
 C           -1.19982177       -3.47551371        1.10570232
 C           -0.32182437       -4.09337918        0.12096037
 C           -2.78958345       -1.67142443        0.58665979
 C           -2.37869278       -2.99171298        0.40543881
 C           -3.56183937       -1.06241614       -0.40391103
 C           -2.70259330        1.11647625        0.29260400
 C           -3.58082503        0.38639016       -0.49427833
 C           -1.43781202        3.11693663        0.68716155
 C           -0.32387120        3.89313125        0.17011365
 C           -2.18446333        2.32675564       -0.17935466
 C           -0.13306412        3.95860806       -1.20296986
 C            2.18760873        3.20360588       -0.92957788
 C            2.78166671        1.89845549       -1.17599060
 C            1.17215697        3.63972694       -1.76812178
 C            1.95249322       -0.31412158       -1.61670025
 C            2.14382023        1.00612693       -2.03177172
 C            0.80681579       -2.44725896       -1.84900442
 C            0.95198340       -1.10343654       -2.20877636
 C           -0.96983350       -3.98714922       -1.16995716
 C           -2.32535426       -3.52817217       -0.94061205
 C           -0.37634077       -3.11173293       -2.16372135
 C           -3.53129846       -1.59311063       -1.76331526
 C           -2.68013433       -2.65222521       -2.03610649
 C           -1.46071200       -2.38249821       -2.79340839
 C           -3.72097013        0.73998586       -1.89010500
 C           -3.51340228       -0.46571021       -2.67156622
 C           -2.16455874        2.60270053       -1.55323568
 C           -1.14465178        3.39414854       -2.08011743
 C           -2.84690575        1.76249921       -2.42968044
 C            0.94915312        2.90737170       -3.00220005
 C            1.38263380        1.52183276       -3.07484707
 C           -0.47220866        2.93813482       -3.28215498
 C            0.04160861       -0.53099620       -3.10543927
 C           -1.22712499       -1.09494339       -3.26528325
 C           -2.32245762       -0.25784646       -3.47138278
 C           -2.11772416        1.17437373       -3.54706069
 C            0.28122264        0.74359055       -3.60882337
 C           -0.84352215        1.64444142       -3.82173117
