   70
C70 / DATE: 7/ 1/2024 / Origin: Program Fullerene / C70 from database
 C            1.29924010       -0.21792175        4.52008575
 C            2.58600616       -0.45965327        3.89503721
 C            2.54461986       -1.77410976        3.27942863
 C            0.45441533       -1.37207093        4.26816030
 C            1.24842172       -2.36552813        3.56580503
 C           -0.78163867       -0.90308816        3.65814210
 C            0.55376468        0.96809928        4.14192567
 C           -0.74941436        0.54616863        3.65017707
 C            1.21025991        1.99829025        3.48174630
 C            3.06679936        0.48265352        2.90058362
 C            2.49012384        1.74327189        2.82674985
 C            2.96146637       -1.63713862        1.89120832
 C            3.31016881       -0.24739582        1.66573943
 C            2.26045204       -2.32549848        0.90699467
 C            0.63483167       -3.10668345        2.56882454
 C            1.32090752       -3.27092920        1.29886876
 C           -1.28558253       -1.57896068        2.55180189
 C           -0.75283397       -2.82397869        2.23975057
 C           -1.97792728       -0.87274076        1.56437133
 C           -1.32330615        1.23121133        2.58495181
 C           -2.06934465        0.52623626        1.63466192
 C            0.43812187        2.86046061        2.60594462
 C           -0.87184723        2.51891737        2.28998251
 C            2.46565828        2.42307251        1.54452775
 C            1.31270386        3.30648633        1.53588431
 C            2.98237803        0.34139581        0.44816894
 C            2.78154790        1.72323689        0.38613702
 C            2.17263359       -1.78969746       -0.37881494
 C            2.58243596       -0.46927956       -0.61911690
 C            1.48923727       -2.50071928       -1.37004402
 C            0.31573779       -3.69092788        0.34601860
 C           -0.98454745       -3.37815113        0.92249511
 C            0.50119709       -3.42660734       -1.00345932
 C           -2.47144014       -1.55632219        0.44550691
 C           -1.94236177       -2.80409930        0.09569593
 C           -3.29836272       -0.88924679       -0.45121643
 C           -2.78900060        1.23683522        0.66983263
 C           -3.42046954        0.55428261       -0.36616141
 C           -1.48150970        3.22301898        1.26258193
 C           -2.57104123        2.60498162        0.53412000
 C            0.73888860        3.66363048        0.31754462
 C           -0.63480521        3.90067356        0.29134121
 C            2.45017426        2.30707819       -0.82729500
 C            1.40567010        3.32229266       -0.86259250
 C            2.43777835        0.09376932       -1.89136412
 C            2.30800773        1.47396589       -2.00452199
 C            1.58586899       -2.06361012       -2.68814731
 C            1.94973000       -0.68380721       -2.93733818
 C            0.55585143       -2.41609670       -3.65032268
 C           -0.62647507       -3.57493713       -1.80479409
 C           -1.90842236       -3.18159611       -1.24641508
 C           -0.59048065       -3.16519491       -3.19085506
 C           -3.25627271       -1.23736689       -1.86176462
 C           -2.60854634       -2.39840381       -2.24944258
 C           -1.77967697       -2.36759017       -3.44523997
 C           -3.35435793        1.08538042       -1.72368676
 C           -2.98760886       -0.01205197       -2.59325417
 C           -2.58955667        3.19539852       -0.79313927
 C           -1.34421979        3.92069254       -0.97477512
 C           -2.76944109        2.32220577       -1.93506645
 C            0.67463727        3.16438264       -2.11499856
 C            1.21626496        2.00787776       -2.80254980
 C           -0.68961498        3.39537425       -2.15539383
 C           -1.56142728        2.39123320       -2.74476916
 C            0.92851584       -0.11187733       -3.80410534
 C            0.06688694       -1.18314050       -4.24684764
 C           -1.34768856       -1.08091040       -3.96595786
 C           -1.83556834        0.07958881       -3.37300293
 C            0.37134175        1.11046715       -3.44676023
 C           -1.01795444        1.21470162       -3.26758352
