   70
C70 / DATE: 7/ 1/2024 / Origin: Program Fullerene / C70 from database
 C            1.51086748        0.12627943        4.82051586
 C            0.71771627       -1.07290178        4.62911156
 C            1.43553985       -1.95620641        3.72726793
 C            2.70308821        0.00408516        4.00184375
 C            2.65016027       -1.27002744        3.30730825
 C            2.81819951        1.21112851        3.21245285
 C            0.74046572        1.24595937        4.30670103
 C            1.55694890        1.92984709        3.32594954
 C           -0.61986488       -0.66093999        4.25946021
 C           -0.55313034        0.74457935        3.88931213
 C           -1.35619617       -1.51307659        3.45576147
 C            0.71313286       -2.68658267        2.78593222
 C           -0.68165888       -2.63139438        2.80584759
 C            1.36400729       -3.09659481        1.62699754
 C            3.03635839       -1.33312722        1.96862467
 C            2.54712961       -2.37392411        1.18523841
 C            3.40556035        1.11596650        1.95991141
 C            3.56093985       -0.19807469        1.34453291
 C            2.96658178        2.02702618        0.91853448
 C            0.95833326        2.40256105        2.16267883
 C            1.78668704        2.74313516        1.09544721
 C           -1.06136915        1.14549259        2.65450376
 C           -0.39523984        2.12805110        1.91542683
 C           -2.25047551       -0.93611528        2.47133648
 C           -2.03914891        0.36694861        2.03282450
 C           -1.44306355       -2.95087755        1.60610282
 C           -2.51005836       -1.96614811        1.48913118
 C            0.59942722       -3.46625021        0.44562745
 C           -0.79127225       -3.38215107        0.45303893
 C            2.45982397       -2.21573926       -0.25877255
 C            1.33677707       -3.00539685       -0.72237254
 C            3.41464884       -0.03069334       -0.09713659
 C            3.20250427        1.37966069       -0.36007079
 C            2.70406616       -0.97340411       -0.83087474
 C            2.41744830        1.75398629       -1.44093479
 C            1.21908429        3.34293355       -0.01860378
 C            1.68273022        2.93227554       -1.33222341
 C           -0.97943670        2.60214307        0.74048800
 C           -0.22418066        3.42118978       -0.09516575
 C           -2.50266967        0.73148627        0.76931114
 C           -2.10803856        1.95876913        0.23018470
 C           -2.92821533       -1.58538208        0.22387624
 C           -3.12692014       -0.23020056       -0.03921848
 C           -1.45915309       -3.26996592       -0.76502061
 C           -2.65130214       -2.44281449       -0.83490498
 C            0.63091851       -2.58805123       -1.84000632
 C           -0.69095095       -3.00123830       -1.96802300
 C            1.96047794       -0.56629933       -1.94363832
 C            1.99710359        0.77861506       -2.34371825
 C            1.06765713       -1.46659901       -2.54570843
 C            1.30098643        1.19038678       -3.47617630
 C            0.61181815        3.20336876       -2.27734911
 C           -0.57382639        3.54268295       -1.50187858
 C            0.49433839        2.39697592       -3.40138859
 C           -2.66243189        2.40069559       -0.96857061
 C           -1.82071494        3.10332303       -1.92034678
 C           -3.63532491        0.13321134       -1.28190395
 C           -3.52090796        1.50843806       -1.71925865
 C           -2.78421379       -1.96471531       -2.20274020
 C           -1.56913822       -2.33297967       -2.91560590
 C           -3.36658192       -0.72321708       -2.42499700
 C            0.39054149       -1.10956081       -3.70815558
 C            0.57011694        0.21651525       -4.25626032
 C           -1.01502135       -1.45427808       -3.83645732
 C           -0.82366854        2.08229206       -3.92828882
 C           -1.95913142        2.44007214       -3.20816894
 C           -3.06666136        1.50408170       -3.10177160
 C           -2.88082834        0.11936718       -3.50625209
 C           -0.74654195        0.76664530       -4.54337909
 C           -1.73484749       -0.24524779       -4.20593912
