   70
C70 / DATE: 7/ 1/2024 / Origin: Program Fullerene / C70 from database
 C            1.20669018       -0.13071835        4.47012838
 C            2.47364673       -0.30623855        3.78885525
 C            2.41837874       -1.57952880        3.09036245
 C            0.36843848       -1.27413777        4.13899911
 C            1.04904828       -2.04645228        3.12590620
 C           -0.95189203       -0.77837703        3.84034340
 C            0.43005148        1.07222734        4.22442382
 C           -0.94697727        0.66468177        4.02609236
 C            0.95241086        2.08220040        3.43179653
 C            2.91216678        0.69880315        2.83589307
 C            2.19994274        1.88194303        2.70264393
 C            3.03354171       -1.39626042        1.79495863
 C            3.36392727        0.00571779        1.64202919
 C            2.47877568       -2.02886882        0.69538560
 C            0.40768125       -2.30039278        1.91529935
 C            1.18621146       -2.56290869        0.78808478
 C           -1.64775843       -1.29465147        2.75366051
 C           -0.94656295       -1.98336135        1.74770410
 C           -2.83269341       -0.64476840        2.43328102
 C           -1.80363145        1.42378052        3.23056536
 C           -2.94396923        0.76543047        2.77087513
 C            0.05728326        2.83915908        2.57748779
 C           -1.30072842        2.53247595        2.52276637
 C            2.04479114        2.46830178        1.38377314
 C            0.76014880        3.14068858        1.33841151
 C            3.17611662        0.57398586        0.38238909
 C            2.47584517        1.78128298        0.25713923
 C            2.93137414       -1.62478746       -0.55348812
 C            3.25036490       -0.27247000       -0.72882945
 C            2.56729966       -2.41000405       -1.63723338
 C            0.56650515       -3.01503114       -0.37629618
 C            1.37900460       -3.22697273       -1.49332224
 C           -1.53452395       -2.17969460        0.49057018
 C           -0.81569852       -2.82434311       -0.52461817
 C           -3.42537845       -0.83059657        1.12791330
 C           -2.70242468       -1.49068446        0.14736301
 C           -3.81307477        1.39262967        1.79998252
 C           -4.10145308        0.40762013        0.76994932
 C           -2.02592577        3.08448896        1.46650201
 C           -3.35373118        2.59616049        1.15123696
 C            0.04282087        3.17036021        0.14293588
 C           -1.33947601        3.35436757        0.21096276
 C            1.91898131        2.11896019       -0.97333052
 C            0.60997647        2.62218932       -1.01801207
 C            3.17461001        0.30426593       -1.99328699
 C            2.49379602        1.57867677       -2.11692436
 C            2.57064295       -1.85638757       -2.97851981
 C            2.83134873       -0.50554637       -3.15040955
 C            0.80087910       -3.39626880       -2.80936199
 C            1.47370271       -2.47282454       -3.71058237
 C           -1.41168432       -2.91171402       -1.78610122
 C           -0.62029054       -3.21303189       -2.96285448
 C           -2.88749541       -1.09373096       -1.17257298
 C           -2.35437513       -1.88309659       -2.17205793
 C           -3.80410709        1.00622618       -0.52034716
 C           -3.41879463        2.38240372       -0.28531960
 C           -2.17643170        2.85149957       -0.86370802
 C           -3.07232446        0.25830991       -1.43553021
 C           -0.22628559        2.30488771       -2.09751414
 C           -1.57624180        2.10261948       -1.86245711
 C           -2.16006319        0.90069396       -2.27750225
 C            1.73161069        1.56109081       -3.34588935
 C            1.95429846        0.28323957       -3.99919358
 C            0.30588142        1.78208896       -3.26481438
 C            0.46030427       -1.63023931       -4.32657721
 C           -0.83517636       -2.13683971       -3.92130478
 C           -1.80246886       -1.22289010       -3.34008405
 C           -1.52075024        0.14163673       -3.26562722
 C            0.66014855       -0.25714293       -4.38087208
 C           -0.36625773        0.64586706       -3.87212826
