   70
C70 / DATE: 7/ 1/2024 / Origin: Program Fullerene / C70 from database
 C            1.25931270        0.05637546        4.78393294
 C            2.48910000       -0.05045244        4.02683687
 C            2.54103144       -1.39629778        3.48782633
 C            0.43995812       -1.10178618        4.45063210
 C            1.20169800       -1.93657714        3.54215360
 C           -0.85598074       -0.61713395        4.02279271
 C            0.44334545        1.23722796        4.59726192
 C           -0.91713955        0.79517772        4.33992221
 C            0.78478251        2.16337314        3.53270307
 C            2.71890261        0.86483227        2.91836962
 C            1.75681451        1.81266193        2.59205721
 C            3.17246584       -1.31473585        2.18934416
 C            3.32832105        0.09531853        1.85620583
 C            2.73493292       -2.16142334        1.17844356
 C            0.62356903       -2.34808601        2.34578166
 C            1.45958525       -2.73435942        1.29559785
 C           -1.36203594       -1.03271212        2.79893407
 C           -0.71715799       -2.04402564        2.07791959
 C           -2.29144899       -0.22297233        2.15301118
 C           -1.48233020        1.69821804        3.34927067
 C           -0.47435727        2.70843608        3.07051149
 C           -2.20324442        1.16550423        2.28055151
 C           -0.50252148        3.32726232        1.83582604
 C            1.59632641        2.20053340        1.25755672
 C            0.64746498        3.17201799        0.95827993
 C            3.13566049        0.47249893        0.52967029
 C            2.16478876        1.43894148        0.22426441
 C            3.22909389       -1.88042000       -0.08833701
 C            3.45444768       -0.48433437       -0.42438490
 C            2.66755136       -2.53703526       -1.25159645
 C            0.88544823       -3.37588026        0.20317083
 C            1.52067283       -3.30105230       -1.10254510
 C           -1.31177493       -2.52987621        0.90773024
 C           -0.55027857       -3.27291501        0.00810462
 C           -3.00895819       -0.76213832        1.09990117
 C           -2.51072371       -1.97142391        0.46686225
 C           -3.50438905        0.11796639        0.05910442
 C           -2.42945393        1.97230033        1.16089376
 C           -1.67004581        3.13176181        1.00305697
 C           -3.11891494        1.45762622        0.05898704
 C            0.16478922        3.30958132       -0.40287842
 C           -1.27034733        3.53359782       -0.32710356
 C            1.69016521        1.57002621       -1.09774691
 C            0.66291982        2.47653355       -1.39729858
 C            3.05165515       -0.29102201       -1.79591002
 C            2.77217754       -1.60425683       -2.35983135
 C            2.22952005        0.77940954       -2.12103790
 C            1.88186526       -1.69657179       -3.41912758
 C            0.47302588       -3.23409403       -2.10991541
 C           -0.80133404       -3.14084726       -1.42048401
 C            0.67145800       -2.49528747       -3.26726282
 C           -2.76565386       -1.86153937       -0.96186403
 C           -3.52031269       -0.64210112       -1.18331223
 C           -1.77481095       -2.24660922       -1.86110292
 C           -3.39430484        0.02088419       -2.39154727
 C           -3.11634102        2.17058316       -1.14055222
 C           -2.05682677        3.13455018       -1.39024886
 C           -3.36300808        1.47087040       -2.39101225
 C           -0.06009701        2.35250617       -2.58807574
 C           -1.40267324        2.72941888       -2.61830884
 C           -2.34670262        1.89671245       -3.33864224
 C            1.64397213        0.78719553       -3.38411594
 C            1.51385502       -0.47048958       -4.10176557
 C            0.42747342        1.54105875       -3.60581040
 C           -0.43663683       -1.73154778       -3.81348864
 C           -1.59515106       -1.54027965       -3.05828740
 C           -2.41529641       -0.44780682       -3.35875433
 C           -1.84163086        0.72091599       -4.01641356
 C            0.13140870       -0.59851769       -4.51967744
 C           -0.49767615        0.69473008       -4.35502896
