   70
C70 / DATE: 7/ 1/2024 / Origin: Program Fullerene / C70 from database
 C            1.53910902       -0.27290005        4.99012633
 C            0.68865206       -1.44840115        4.99058839
 C            1.17772582       -2.35280291        3.96377769
 C            2.55218748       -0.45999682        3.96788926
 C            2.30836478       -1.73054717        3.31001296
 C            2.57281999        0.73466972        3.14314460
 C            0.72829126        0.86193122        4.58664215
 C            1.43250484        1.55249267        3.52083411
 C           -0.64568267       -1.03151118        4.59619820
 C           -0.61546466        0.38755830        4.31334086
 C            0.04935432       -2.73181692        3.14217007
 C           -1.08502192       -1.91830257        3.54122861
 C            0.24392659       -2.91843566        1.77883457
 C            2.36897253       -1.75898512        1.92120317
 C            1.46830320       -2.55355671        1.19887947
 C            2.83921817        0.59004356        1.78721716
 C            2.99204875       -0.69707090        1.27224176
 C            2.42108971        1.60016326        0.92415366
 C            0.68226473        2.12603569        2.49973104
 C            1.30916229        2.37272058        1.27865297
 C           -1.23919469        0.84293731        3.15729040
 C           -0.70223357        1.95428459        2.51263054
 C           -1.87993263       -1.40535663        2.52446662
 C           -2.07070126       -0.01943370        2.43155804
 C           -0.89057147       -2.93562607        0.97434422
 C           -1.99020996       -2.16374954        1.36497692
 C           -0.73648404       -3.31830723       -0.34973552
 C            1.61276764       -2.63732750       -0.19419118
 C            0.56712139       -3.14964617       -0.96232397
 C            3.28155420       -0.83769694       -0.07478860
 C            2.59866226       -1.87804655       -0.82464579
 C            2.83582662        1.55284084       -0.40474241
 C            3.32685047        0.34977817       -0.91036753
 C            2.39546294        2.53459637       -1.28349492
 C            0.61287889        3.08129192        0.29816979
 C            1.19882536        3.28169087       -0.94611372
 C           -1.45267633        2.55263328        1.51359175
 C           -0.76625225        3.21641354        0.41851023
 C           -2.77889942        0.49384519        1.33611165
 C           -2.57425452        1.81842125        0.95483984
 C           -2.94241015       -1.77640578        0.43410657
 C           -3.36277971       -0.38800725        0.42811509
 C           -1.74916520       -2.97870890       -1.33294909
 C           -2.84884141       -2.23067136       -0.94081368
 C            0.35783250       -2.65507619       -2.31610135
 C           -1.07026844       -2.67090489       -2.58152820
 C            2.36937553       -1.37288206       -2.17231377
 C            2.98863630       -0.06311340       -2.26354186
 C            1.14576684       -1.61006786       -2.79132192
 C            2.35668405        2.24826720       -2.70711815
 C            2.47189276        0.87012929       -3.14612605
 C            0.35459849        3.33271599       -2.13191091
 C            1.11825363        2.78893240       -3.23957599
 C           -1.60184672        3.09947516       -0.76556981
 C           -2.70087782        2.20134001       -0.44416372
 C           -1.00228988        3.03208074       -2.02001791
 C           -3.55153200        0.01330271       -0.95922605
 C           -3.33852577       -1.16204360       -1.79473303
 C           -3.11469023        1.26725402       -1.38607194
 C           -1.60699975       -1.72896158       -3.44610452
 C           -2.81624212       -1.00815102       -3.07155840
 C            0.60333240       -0.66092698       -3.66727532
 C            1.27280526        0.54377917       -3.89922515
 C            0.50714404        1.77283417       -4.07006182
 C           -0.71598860       -0.78918004       -4.10241930
 C           -1.64959480        2.33777966       -3.04542473
 C           -2.76862538        1.46440938       -2.72071120
 C           -2.72162222        0.32873578       -3.62411343
 C           -0.87628178        1.69828268       -4.10564577
 C           -1.48410571        0.41095175       -4.37955200
