   70
C70 / DATE: 7/ 1/2024 / Origin: Program Fullerene / C70 from database
 C            1.48539940       -0.22417568        5.18136700
 C            0.65619900       -1.38836748        5.43461034
 C            1.07114940       -2.43853197        4.52162362
 C            2.42002770       -0.56619362        4.12456460
 C            2.12697061       -1.90960428        3.67198142
 C            2.37304091        0.49695164        3.14592914
 C            0.63021331        0.83409034        4.66938187
 C            1.24915205        1.35508906        3.46956675
 C           -0.70946480       -1.04095203        5.09094155
 C           -0.71537631        0.31640750        4.56335089
 C           -0.12332301       -2.97205862        3.88862316
 C           -1.23866506       -2.10775504        4.25721596
 C           -0.01673072       -3.42834013        2.57981138
 C            2.06145315       -2.14571159        2.30048701
 C            1.19589122       -3.13134839        1.83599473
 C            2.54436770        0.17735968        1.80844171
 C            2.50001368       -1.16107516        1.40738408
 C            2.16293518        1.13573339        0.87800124
 C            0.43887456        1.75936997        2.41260725
 C            1.04721615        1.92281366        1.16703004
 C           -1.43563069        0.57065183        3.39955918
 C           -0.92792240        1.46026610        2.44049414
 C           -2.17995218       -1.76609170        3.29559038
 C           -2.39424954       -0.35755850        3.01099106
 C           -1.13397266       -3.26714776        1.65962162
 C           -2.20227497       -2.46586042        2.01862824
 C            0.85434072       -3.16366745        0.42935641
 C           -0.59050678       -3.16219441        0.31413406
 C            2.45269408       -1.41696487        0.03575313
 C            1.55945659       -2.37359560       -0.45624225
 C            2.50376329        0.91714253       -0.44667809
 C            2.82133545       -0.38892896       -0.82974904
 C            2.05141505        1.82062890       -1.40464931
 C            0.28885921        2.44363350        0.11708799
 C            0.84554534        2.49312016       -1.17004070
 C           -1.67431674        1.71963840        1.28738724
 C           -1.09642898        2.50412984        0.28239004
 C           -2.94917412       -0.27435267        1.68259000
 C           -2.76227800       -1.55668663        1.03498360
 C           -2.70630108        0.84871493        0.92004779
 C           -1.17725459       -2.31384044       -0.63192307
 C           -2.30056293       -1.55408355       -0.28341722
 C            0.97650599       -2.14004567       -1.69609333
 C           -0.40734524       -1.92781501       -1.74182690
 C            2.83907644       -0.69173263       -2.18511747
 C            1.78736175       -1.56899261       -2.66149270
 C            2.56036383        1.70885752       -2.69313477
 C            2.96562469        0.39378062       -3.13498635
 C            1.86425096        2.33167051       -3.79700936
 C            0.09095852        3.00453510       -2.23693977
 C            0.59923306        2.98314177       -3.53828522
 C           -1.89336185        2.84062232       -0.80760855
 C           -1.26852142        3.24250035       -2.05230345
 C           -2.99341278        0.74185526       -0.42866103
 C           -2.62717318       -0.44922714       -1.07163723
 C           -2.96220689        1.92150352       -1.14614646
 C           -0.94729551       -1.03729691       -2.68323218
 C           -2.15501437       -0.39572053       -2.38257782
 C            1.18401397       -0.93942239       -3.81399952
 C            2.13613865        0.05749012       -4.27524917
 C            1.63149616        1.30415720       -4.80832067
 C           -0.17304388       -0.62902235       -3.78330128
 C           -0.27580418        2.61701761       -4.64100103
 C            0.23090149        1.36598196       -5.16748988
 C           -0.66022005        0.32441912       -4.67986053
 C           -2.20406903        2.89675419       -3.11164269
 C           -3.05424157        1.84990443       -2.58497834
 C           -2.64367371        0.61263638       -3.20971847
 C           -1.68186594        2.41100705       -4.37019870
 C           -1.92460414        0.97078574       -4.41201608
