   70
C70 / DATE: 7/ 1/2024 / Origin: Program Fullerene / C70 from database
 C            1.25144545       -0.08236983        4.41190972
 C            2.55454204       -0.35799446        3.85842080
 C            2.57629225       -1.75550263        3.46602275
 C            0.42790011       -1.27349214        4.23408065
 C            1.20687569       -2.23986649        3.50063959
 C           -0.83397891       -0.84030460        3.68106125
 C            0.49420449        1.03388331        3.88282878
 C           -0.88556342        0.59428193        3.88707015
 C            0.96585928        1.74841065        2.77592995
 C            2.99899722        0.41813763        2.72172177
 C            2.25760596        1.51203271        2.27526827
 C            3.30789596       -1.85832856        2.21330527
 C            3.53819301       -0.50410340        1.73366601
 C            2.89950312       -2.82085899        1.30602104
 C            0.68929950       -2.81687831        2.34625387
 C            1.60991430       -3.45486351        1.52289804
 C           -1.26936648       -1.35655018        2.46020770
 C           -0.51647445       -2.33666180        1.79394035
 C           -2.26285169       -0.65706295        1.76998233
 C           -1.79501507        1.31781000        3.14626000
 C           -2.66928918        0.59077115        2.24952454
 C            0.04338457        2.49985081        2.03091907
 C           -1.30719357        2.45063849        2.38361824
 C            0.42302331        3.10817046        0.82895243
 C            2.61283740        2.03473150        1.03907156
 C            1.70536580        2.91773268        0.33969524
 C            3.37398822       -0.19478330        0.38258648
 C            3.21508547        1.14486046        0.05703315
 C            2.95842637       -2.51062508       -0.10818994
 C            2.92255701       -1.17689210       -0.50816570
 C            1.18046833       -3.98377777        0.25448148
 C            2.09482976       -3.47013488       -0.75839034
 C           -0.93941969       -2.78123885        0.53054892
 C           -0.15870407       -3.68463193       -0.19314587
 C           -2.63165616       -1.05033396        0.48346236
 C           -1.97568717       -2.11654071       -0.13351883
 C           -3.51402123       -0.25462780       -0.25242046
 C           -3.20416203        1.57510589        1.32752230
 C           -2.32432241        2.73574550        1.38752734
 C           -3.69036278        1.14064148        0.10612202
 C           -0.54287824        3.61086859       -0.04119676
 C           -1.95336948        3.38056456        0.21915651
 C           -0.32977666        3.51158301       -1.47884937
 C            1.89975148        2.70865870       -1.08677451
 C            2.70870358        1.51081804       -1.24681994
 C            0.84144978        2.92415517       -1.96350184
 C            2.23811193       -0.80943157       -1.68215065
 C            2.28044953        0.52107941       -2.12062182
 C            1.28611892       -3.03167264       -1.87112520
 C           -0.05567689       -3.52572523       -1.62909186
 C            1.43206477       -1.73956894       -2.36310324
 C           -2.18304774       -2.36337907       -1.49398147
 C           -1.09881284       -2.90753375       -2.28933112
 C           -3.52483969       -0.33154543       -1.70181120
 C           -2.84703303       -1.36850814       -2.31984343
 C           -3.45734570        1.93598433       -1.08911437
 C           -2.58978958        3.02204135       -1.03821065
 C           -1.61716585        3.22290916       -2.09999250
 C           -3.41156766        1.02387365       -2.22126503
 C           -1.67035839        2.43771923       -3.24386796
 C           -2.56493442        1.28994090       -3.29287515
 C            0.81444356        2.19536072       -3.15099036
 C            1.51153577        0.91748678       -3.21132376
 C           -0.42824992        2.06224818       -3.88887739
 C            0.47079906       -1.28598508       -3.26428750
 C           -0.78259664       -1.90163308       -3.28829238
 C           -1.98073363       -1.09527464       -3.45867110
 C           -1.86090608        0.19869459       -3.94891891
 C            0.62849408       -0.03831473       -3.84726659
 C           -0.54326633        0.68020557       -4.32172271
