   70
C70 / DATE: 7/ 1/2024 / Origin: Program Fullerene / C70 from database
 C            1.51977464        0.04648586        4.81505992
 C            0.74582930       -1.17804969        4.70204670
 C            1.57935375       -2.16105557        4.05402255
 C            2.69298231       -0.09975850        3.97151591
 C            2.79068071       -1.48957268        3.59626717
 C            2.60382904        0.89005215        2.91910333
 C            0.71670719        1.12745821        4.26904552
 C            1.45258144        1.73370585        3.18424537
 C           -0.52458454       -0.84218915        4.09218544
 C           -0.59247060        0.60172859        3.96733503
 C           -1.03112325       -1.60904742        3.04172980
 C            1.04183945       -2.88506593        2.91887301
 C           -0.24757430       -2.61864567        2.45095808
 C            2.95588310       -1.82007921        2.19248469
 C            2.11958028       -2.97845014        1.95534883
 C            2.85346618        0.53478178        1.59623695
 C            2.98892580       -0.81102128        1.22465838
 C            2.47667868        1.44496187        0.62089493
 C            0.74277560        2.20979904        2.08665493
 C            1.42375751        2.32390525        0.88615915
 C           -1.26658109        1.10628684        2.86593902
 C           -0.64461324        2.05246114        2.03606472
 C           -2.09844829       -1.07054400        2.31963304
 C           -2.27292985        0.31832717        2.32528796
 C           -2.67544813       -1.83992774        1.31720714
 C           -0.59864729       -3.11329441        1.18908272
 C           -1.86585661       -2.85630168        0.67959576
 C            1.79702642       -3.28716763        0.64841092
 C            0.40351588       -3.53196754        0.31539000
 C            2.78991250       -1.17079580       -0.11775458
 C            2.33799223       -2.45556273       -0.41247689
 C            2.77906868        1.15667826       -0.69792617
 C            2.70116785       -0.17784560       -1.10179731
 C            2.58838984        2.17259281       -1.62244484
 C            0.79094906        2.94682804       -0.18090625
 C            1.54896751        3.14383777       -1.33063755
 C           -1.33283442        2.48520134        0.89159570
 C           -0.61136800        2.89107002       -0.25133607
 C           -3.13711873        0.92414854        1.42698981
 C           -2.68063988        2.13980190        0.78106708
 C           -3.49604133       -1.21175859        0.29724939
 C           -3.83106056        0.12443451        0.43397147
 C           -2.05455334       -2.73917744       -0.76117321
 C           -3.06229242       -1.71602995       -0.99881525
 C            0.26012369       -3.28483058       -1.10999641
 C            1.49179675       -2.65634023       -1.56998504
 C           -0.95950403       -2.84157713       -1.61571483
 C            2.17493248       -0.49883441       -2.36593732
 C            1.41478752       -1.65864808       -2.52801891
 C            2.49922778        1.83121869       -3.02271032
 C            2.12857053        0.47492690       -3.36259263
 C            0.88482791        3.46967870       -2.56699330
 C            1.54026361        2.73318305       -3.63519360
 C           -1.27235455        3.06931805       -1.48630569
 C           -0.53194139        3.21927542       -2.65354898
 C           -3.34223838        2.22089837       -0.49885679
 C           -3.97491939        0.93645696       -0.75776247
 C           -2.55299949        2.56284190       -1.65460194
 C           -2.92430123       -0.84858372       -2.08251272
 C           -3.45743556        0.43493315       -2.01865530
 C           -2.75483366        1.53352149       -2.66115555
 C           -0.96743177       -2.14302063       -2.82040577
 C            0.28698419       -1.62717627       -3.34118975
 C           -1.99296704       -1.14111148       -3.07118850
 C            0.96424144        0.54144339       -4.23514125
 C            0.53460097        1.92230275       -4.29565009
 C           -0.75724351        2.26800823       -3.73383361
 C           -1.71411781        1.26980912       -3.54870784
 C           -0.00721472       -0.43976978       -4.12132514
 C           -1.38830345       -0.05916246       -3.83905858
