   70
C70 / DATE: 7/ 1/2024 / Origin: Program Fullerene / C70 from database
 C            1.28869206        0.02592249        4.33237663
 C            2.53933816       -0.27187050        3.68254811
 C            2.56380902       -1.70390262        3.45443174
 C            0.46016146       -1.17575790        4.27783065
 C            1.19184260       -2.16931970        3.53802785
 C           -0.83634010       -0.76633637        3.78976529
 C            0.47563338        1.09983700        3.80629829
 C           -0.88312005        0.66018162        4.02826585
 C            0.78455844        1.68405206        2.57117454
 C            2.82322858        0.36399699        2.41414513
 C            1.88251342        1.22146784        1.83211707
 C            3.27835076       -1.93521168        2.21483931
 C            3.47389874       -0.63691019        1.58392000
 C            2.85333158       -2.98866578        1.42106353
 C            0.62622705       -2.74154566        2.40387986
 C            1.49163806       -3.47633371        1.60088104
 C           -1.30185861       -1.24789684        2.56256537
 C           -0.54011100       -2.18006021        1.84053203
 C           -2.31005970       -0.51693269        1.91754377
 C           -1.87636259        1.36892689        3.40145062
 C           -2.79010076        0.62484155        2.56294578
 C           -0.22962255        2.40790105        1.93069632
 C           -1.46701375        2.48404065        2.57630047
 C           -0.14891164        2.66924675        0.55226948
 C            1.91161368        1.39946931        0.44913177
 C            0.96298946        2.21731260       -0.17589376
 C            3.34388922       -0.52859206        0.20612001
 C            2.81244860        0.65048654       -0.31355947
 C            3.08590852       -2.91424417       -0.00602252
 C            3.37343408       -1.68262054       -0.58773800
 C            1.02854925       -3.97541668        0.32961354
 C            2.09337547       -3.76314766       -0.63746257
 C           -0.91113082       -2.48479523        0.52204249
 C           -0.18249428       -3.41621472       -0.21992863
 C           -2.51298917       -0.66941526        0.53694922
 C           -1.79120377       -1.64246038       -0.16141746
 C           -3.39938725        0.17638762       -0.15470472
 C           -3.49195218        1.63498417        1.80647450
 C           -2.64874755        2.82749894        1.82341784
 C           -3.81518555        1.36948116        0.42710544
 C           -1.22586549        3.28573335       -0.11027046
 C           -2.49544826        3.25310665        0.45654183
 C           -3.56831725        2.61233956       -0.28045904
 C           -1.16039943        3.49847486       -1.48059179
 C            1.07469633        2.49192499       -1.54740437
 C           -0.01579208        3.02538944       -2.22298571
 C            2.93719245        0.89613062       -1.66910297
 C            1.97548315        1.75898980       -2.31721493
 C            3.19593432       -1.55789240       -1.96368658
 C            3.17704447       -0.23071683       -2.54773098
 C            1.48703039       -3.30843090       -1.87446828
 C            0.06401378       -3.14830019       -1.62624136
 C            2.14550672       -2.33571488       -2.61064649
 C           -1.75840389       -1.62798448       -1.55904098
 C           -0.62471572       -2.09516331       -2.21005548
 C           -3.50494106        0.07688093       -1.53903186
 C           -2.60257139       -0.79060241       -2.26292940
 C           -3.48265544        2.57782852       -1.66233161
 C           -2.34717232        3.23572293       -2.28650750
 C           -3.65987534        1.29515900       -2.32272436
 C           -0.50797265        2.31055104       -3.39003873
 C           -2.03521086       -0.03749353       -3.36640451
 C           -1.94592403        2.44144163       -3.43440915
 C           -2.73233075        1.23190091       -3.44072476
 C            1.46085502        1.05001421       -3.48045706
 C            2.14705207       -0.21771293       -3.57147811
 C            1.35860863       -1.41551158       -3.41016396
 C           -0.00240388       -1.27199198       -3.15679414
 C            0.09016523        1.09379498       -3.69572554
 C           -0.65242302       -0.09625272       -3.55691812
