   70
C70 / DATE: 7/ 1/2024 / Origin: Program Fullerene / C70 from database
 C            1.17569228       -0.09379594        4.64763168
 C            2.40474420       -0.46751912        3.98921816
 C            2.21502450       -1.79647001        3.41804616
 C            0.30662691       -1.25676280        4.61988699
 C            0.82544515       -2.14810922        3.59683295
 C           -1.05064094       -0.77080502        4.48374058
 C            0.41542754        1.01630632        4.11023403
 C           -0.98581526        0.66287416        4.24015584
 C            0.83303447        1.63773662        2.93514250
 C            2.90461394        0.37466609        2.92157933
 C            2.12274964        1.41902942        2.42431612
 C            2.75699830       -1.76220423        2.07679131
 C            3.51767931       -0.53057012        1.97675323
 C            1.95996403       -2.14001664        0.99713730
 C            0.03826453       -2.42312327        2.47951096
 C            0.62171405       -2.49546627        1.19976813
 C           -1.87694635       -1.33819292        3.43988757
 C           -1.35111286       -2.31924520        2.60390367
 C           -1.88391663        0.96253370        3.13476225
 C           -2.61446003       -0.24869815        2.82483259
 C           -0.12641929        2.25467502        2.13449761
 C           -1.41917216        1.73267341        2.08170223
 C            0.29739355        3.09324001        1.11818890
 C            2.46916980        1.96818826        1.18319577
 C            1.64730832        2.93525072        0.61163343
 C            3.80053342       -0.05213373        0.71359304
 C            3.38960537        1.30163368        0.37172925
 C            2.38535637       -1.78764452       -0.28367736
 C            3.43538567       -0.87675352       -0.41805889
 C            1.58218712       -2.06445961       -1.39114148
 C           -0.17633134       -2.80974646        0.09613545
 C            0.25400259       -2.47392748       -1.19906207
 C           -2.14304593       -2.69940326        1.53401010
 C           -1.50161777       -3.16486802        0.32365109
 C           -3.08395464       -0.44973660        1.52966334
 C           -3.18256668       -1.77450725        1.11582398
 C           -2.07470487        1.65647932        0.85487809
 C           -2.88823107        0.54920186        0.56097800
 C           -0.58016895        3.32711658       -0.01465784
 C           -1.75167187        2.58182393       -0.13692129
 C            1.59158095        3.06712635       -0.83781015
 C            0.26338566        3.54059882       -1.18008710
 C            3.23492765        1.34310544       -1.07845659
 C            3.47271522       -0.00411189       -1.57262027
 C            2.21720617        2.11392772       -1.63687273
 C            2.00936333       -1.61646940       -2.64245065
 C            2.82485157       -0.41804947       -2.71803267
 C            1.07069592       -1.54883619       -3.73782957
 C           -0.65688328       -2.47163104       -2.27547658
 C           -0.30906577       -1.86434174       -3.47281656
 C           -2.47350787       -3.00587985       -0.73437089
 C           -3.48165912       -2.06671303       -0.26486400
 C           -2.01603540       -2.54062583       -2.01923703
 C           -3.32042056        0.32981677       -0.75699816
 C           -3.52956733       -0.97006455       -1.20530757
 C           -2.84484633       -1.41043431       -2.40727674
 C           -2.37818475        2.50833826       -1.37279929
 C           -3.09969051        1.30273900       -1.72419708
 C           -0.24748516        3.26696983       -2.43767572
 C           -1.66074771        2.95631989       -2.55504755
 C            1.63924656        1.72864562       -2.85322947
 C            2.06403793        0.55527141       -3.47619420
 C            1.12461250       -0.20044345       -4.28411911
 C            0.47970720        2.36056074       -3.31098256
 C           -1.13170760       -0.76344561       -3.95335316
 C           -2.30720752       -0.44926457       -3.26162677
 C           -2.65250553        0.88639718       -3.04810050
 C           -1.81637890        1.94421870       -3.58524757
 C           -0.23443648        0.28862949       -4.41690516
 C           -0.50014528        1.60837599       -4.08630731
