   70
C70 / DATE: 7/ 1/2024 / Origin: Program Fullerene / C70 from database
 C            1.68692558       -0.03141216        4.48716289
 C            0.83031472       -1.19899388        4.40972954
 C            1.27458393       -2.01883007        3.29335555
 C            2.61083621       -0.08995905        3.37047040
 C            2.35103701       -1.30586186        2.62863172
 C            2.52344140        1.16676366        2.65892323
 C            0.84917562        1.14042898        4.29916872
 C            1.42629885        1.92932614        3.22797378
 C           -0.54514217       -0.73877477        4.41551810
 C           -0.52012858        0.69206128        4.14865676
 C           -1.48182205       -1.51792131        3.75923804
 C            0.30829114       -2.65554111        2.51639213
 C           -1.00969767       -2.65001590        2.97962090
 C            0.55901794       -2.86965399        1.15262106
 C            2.34384455       -1.24441282        1.24330976
 C            1.62813285       -2.19934134        0.53584073
 C            2.64139979        1.15802441        1.27594630
 C            2.71572092       -0.06496561        0.59550351
 C            2.18371035        2.27547139        0.58622431
 C            0.57443936        2.58286145        2.34257082
 C            1.10746799        2.99250923        1.11844932
 C           -1.26553330        1.21124060        3.09202848
 C           -0.80545553        2.35617786        2.43790254
 C           -2.48767550       -0.86144616        2.94536576
 C           -2.24485399        0.42500368        2.47668873
 C           -2.08451913       -2.99639477        2.07469751
 C           -2.99024470       -1.85828231        2.01701969
 C           -0.41415626       -3.50184850        0.36496163
 C           -1.74969400       -3.35212507        0.71695766
 C           -0.16356398       -3.69334513       -0.98727258
 C            1.80474997       -2.27813964       -0.84187857
 C            1.10172133       -3.25801665       -1.53230711
 C            2.77224842       -0.05601996       -0.80091307
 C            2.37750214       -1.19054840       -1.51994061
 C            2.50099842        2.37843413       -0.76098245
 C            2.89308865        1.16937461       -1.45960806
 C            1.66184212        3.16084786       -1.65267962
 C            0.34155436        3.81794090        0.30096665
 C            0.55405889        3.81789558       -1.13633911
 C           -1.65035784        2.95518714        1.50943840
 C           -1.08626064        3.86736597        0.53231562
 C           -2.71851118        0.78732736        1.21407903
 C           -2.61451688        2.11284655        0.82392088
 C           -3.14819989       -1.49402268        0.61892429
 C           -2.60080465       -2.57530298       -0.16922628
 C           -2.88161493       -0.19149522        0.23305148
 C           -1.17758902       -3.22771550       -1.91840711
 C           -2.11773184       -2.31965894       -1.44681873
 C            0.90522118       -3.14529961       -2.96352675
 C           -0.52502339       -2.98015981       -3.18022359
 C            2.36254583       -1.13300091       -2.91600214
 C            1.57809495       -2.08388025       -3.67407541
 C            2.46279317        1.30061103       -2.84148973
 C            1.55596980        2.43756896       -2.91081494
 C            2.18479202        0.15174665       -3.56657388
 C            0.31410820        2.29258123       -3.51954052
 C           -0.74366908        3.66522350       -1.78103822
 C           -1.74956811        3.62491316       -0.73677197
 C           -2.55160807        2.42297731       -0.59238324
 C           -0.87493891        2.78999964       -2.85065596
 C           -2.47023739        0.06405917       -1.07706010
 C           -2.07337429       -0.99487811       -1.91690197
 C           -2.39338892        1.38962804       -1.51429160
 C           -1.81168225        1.67921809       -2.74263567
 C           -0.72065758       -1.69552103       -3.80893436
 C            0.56048731       -1.32302324       -4.38093509
 C            0.95302828        0.07320702       -4.34077940
 C           -0.03685954        1.02422486       -4.13288159
 C           -1.47639784       -0.71843691       -3.15995365
 C           -1.31396416        0.60119823       -3.56978284
