   70
C70 / DATE: 7/ 1/2024 / Origin: Program Fullerene / C70 from database
 C            1.13936545        0.09649432        4.41789405
 C            2.41202397       -0.16950413        3.78654458
 C            2.41707654       -1.57072338        3.41066178
 C            0.30833257       -1.09050222        4.26283311
 C            1.04142182       -2.03482425        3.45602380
 C           -0.98899952       -0.65752168        3.80235596
 C            0.36168612        1.22415444        3.95027009
 C           -1.02208524        0.79286485        3.89013795
 C            0.84468524        2.02716156        2.92112221
 C            2.77193346        0.59250762        2.60610895
 C            1.89765131        1.56477925        2.11739479
 C            3.13398761       -1.68493893        2.15601319
 C            3.38986188       -0.33510184        1.67226957
 C            2.69306322       -2.63299874        1.24807209
 C            0.47144033       -2.53841496        2.28777931
 C            1.33131481       -3.13515666        1.37472916
 C           -1.56597856       -1.26586053        2.69617060
 C           -0.78863043       -2.08360446        1.85616757
 C           -2.70587199       -0.66005911        2.19540433
 C           -1.89461238        1.49614867        3.06314535
 C           -2.87249872        0.77654057        2.37063958
 C           -0.03993165        2.96358619        2.40262705
 C           -1.46782241        2.73030692        2.57250820
 C            0.16036483        3.46536252        1.05878749
 C            1.92129578        1.86240730        0.74983394
 C            1.02825589        2.79212084        0.21305779
 C            3.29075409       -0.07452572        0.30913402
 C            2.78288307        1.16124888       -0.09648561
 C            2.93483258       -2.40548447       -0.16242737
 C            3.31741274       -1.14299033       -0.59558351
 C            0.85691657       -3.45756234        0.05054652
 C            1.90514387       -3.11452623       -0.90019304
 C           -1.26022225       -2.42625718        0.56969572
 C           -0.45963970       -3.20042797       -0.29062261
 C           -3.18804686       -1.01218596        0.88306182
 C           -2.51432605       -1.96154290        0.13249838
 C           -3.46849920        1.30691200        1.14998930
 C           -3.63700555        0.20412969        0.22274756
 C           -2.14999518        3.33971466        1.44632847
 C           -1.13415116        3.86098245        0.54629580
 C           -3.07400310        2.54099567        0.66587653
 C           -1.48462718        3.46174086       -0.80002347
 C           -2.70309633        2.66735996       -0.73245210
 C            0.81069764        2.83038163       -1.16736245
 C           -0.47946138        3.05187843       -1.66843740
 C            2.85755620        1.51817765       -1.43769478
 C            1.79954349        2.33248948       -2.00979785
 C            3.23723197       -0.88210124       -1.95745724
 C            3.20244027        0.49608575       -2.40397307
 C            1.54535562       -2.66561744       -2.17072066
 C            2.28852614       -1.64134856       -2.76325719
 C           -0.76867365       -3.28753345       -1.64253366
 C            0.24587223       -2.90902363       -2.61484686
 C           -2.84946591       -2.02398347       -1.21565362
 C           -2.04246932       -2.80709190       -2.11648810
 C           -3.36337780        0.36831821       -1.13485877
 C           -2.84423988        1.58516022       -1.60354668
 C           -3.22043865       -0.79212502       -1.89592207
 C           -0.88174936        2.39624560       -2.82660878
 C           -2.11035297        1.62009019       -2.78991700
 C            1.42852747        1.74910478       -3.28975560
 C            2.26555265        0.58742150       -3.50948961
 C            1.63480406       -0.71027142       -3.67161767
 C            0.08777395        1.67313221       -3.62795068
 C           -0.37604386       -1.99204673       -3.55687172
 C           -1.80736854       -2.01506596       -3.31303034
 C           -2.51767452       -0.75952394       -3.16634891
 C           -1.89503959        0.41017511       -3.56122142
 C            0.25710032       -0.78887809       -3.84834208
 C           -0.49628682        0.38314486       -3.97323469
