   70
C70 / DATE: 7/ 1/2024 / Origin: Program Fullerene / C70 from database
 C            1.54309626       -0.00360221        4.73326307
 C            0.76283394       -1.21982078        4.60314329
 C            1.41270922       -2.07407536        3.62194070
 C            2.65717600       -0.09511870        3.80840348
 C            2.65389225       -1.42530656        3.22973131
 C            2.59478518        1.04704564        2.91293697
 C            0.70428271        1.10112477        4.30409424
 C            1.38434888        1.78732918        3.22182604
 C           -0.61676347       -0.83593028        4.37312137
 C           -0.62754497        0.58389610        4.05241483
 C           -1.40482104       -1.68608707        3.61732179
 C            0.62273335       -2.70527057        2.65914155
 C           -0.75851295       -2.75012710        2.86238423
 C            1.15262817       -2.97797510        1.39098106
 C            3.09822752       -1.56671867        1.92661532
 C            2.40333691       -2.47970192        1.03796804
 C            2.93520230        0.86954381        1.57501589
 C            3.40800978       -0.37304050        1.15391481
 C            2.39581429        1.73344171        0.62244813
 C            0.62584868        2.26682184        2.16232117
 C            1.25678025        2.48138193        0.93943868
 C           -1.29877163        1.02368128        2.91239584
 C           -0.75645594        2.08072694        2.17926165
 C           -2.40701033       -1.11149658        2.74230511
 C           -2.27815824        0.21313877        2.32789025
 C           -1.64807993       -3.09887666        1.76806715
 C           -2.73681700       -2.13084694        1.76512248
 C            0.33333644       -3.47504971        0.37965149
 C           -1.10522969       -3.53121255        0.56776807
 C            0.59095373       -3.08990300       -1.00180901
 C            2.62736558       -2.01967598       -0.32535435
 C            3.29622152       -0.73235798       -0.24918842
 C            1.63604278       -2.21346619       -1.28678098
 C            2.72877567        1.54349290       -0.71497458
 C            2.94725217        0.24250172       -1.16837954
 C            2.33519780        2.51165335       -1.62920296
 C            0.55609196        3.13936273       -0.07416199
 C            1.14786959        3.28946147       -1.32501775
 C           -1.51030930        2.63763672        1.15702683
 C           -0.82771337        3.24900624        0.02847354
 C           -2.90444042        0.62464722        1.14667821
 C           -2.64471740        1.89373294        0.64225236
 C           -3.30483299       -1.73609554        0.56438364
 C           -3.50803357       -0.31772699        0.31738406
 C           -1.73694617       -3.15868035       -0.68782123
 C           -0.68923769       -2.91489181       -1.66501118
 C           -2.85694019       -2.34051789       -0.68018787
 C           -0.83033927       -1.88655165       -2.58947558
 C            1.49134601       -1.27899118       -2.32016355
 C            2.34079471       -0.16679423       -2.35036264
 C            0.32398261       -1.28467599       -3.09316763
 C            2.28842958        2.16123413       -3.03852732
 C            2.24581079        0.75475823       -3.38524487
 C            0.30606820        3.28821853       -2.51287470
 C            1.11470972        2.79284214       -3.61452365
 C           -1.65044769        3.04510972       -1.15335009
 C           -2.72875323        2.13537143       -0.79258661
 C           -1.03825036        2.92819301       -2.39603733
 C           -3.49728693       -0.11972216       -1.12292549
 C           -3.01311360       -1.34990121       -1.72855379
 C           -2.07223573       -1.25582576       -2.74603347
 C           -3.07848045        1.09834260       -1.65615963
 C           -1.65386025        2.14359105       -3.37213308
 C           -2.15965693       -0.13714522       -3.56490741
 C           -2.59895005        1.11564926       -2.96589830
 C            0.21856991       -0.44140668       -4.19373960
 C            1.22234268        0.58350007       -4.39530329
 C            0.53490476        1.85805789       -4.55510774
 C           -1.06808033        0.15923228       -4.46961178
 C           -0.88698079        1.60085942       -4.48250928
