   70
C70 / DATE: 7/ 1/2024 / Origin: Program Fullerene / C70 from database
 C            1.54018553        0.03031160        4.77416297
 C            0.73230490       -1.16969689        4.71731733
 C            1.34097307       -2.08142211        3.76446467
 C            2.60666544       -0.10951341        3.79729628
 C            2.43988841       -1.37249670        3.12028289
 C            2.60907134        1.08241534        2.99249229
 C            0.69945103        1.13733957        4.34876674
 C            1.42505491        1.85609580        3.33660944
 C           -0.63762285       -0.76097396        4.48488850
 C           -0.59602151        0.60724904        3.99161728
 C           -1.46314658       -1.65677420        3.83788761
 C            0.50328559       -2.87551451        2.98433295
 C           -0.86873517       -2.85068632        3.24871358
 C            0.96369418       -3.28819228        1.73240294
 C            2.55208113       -1.42281209        1.73216196
 C            2.04630077       -2.55097388        1.10018239
 C            2.92867009        0.98925502        1.64311483
 C            2.77687986       -0.24716320        0.98733160
 C            2.70138730        2.14861594        0.91784676
 C            0.72555465        2.42546810        2.28362800
 C            1.52730618        2.92657247        1.27337582
 C           -1.12463903        0.90263800        2.72887040
 C           -0.53054993        1.89535431        1.93168748
 C           -2.38860762       -1.14215393        2.85208247
 C           -2.07682193        0.04073287        2.17576634
 C           -1.80945609       -3.32699380        2.25158796
 C           -2.82187974       -2.29211605        2.09477473
 C            0.03242424       -3.69399765        0.68621571
 C           -1.32822754       -3.68051763        0.92919926
 C            1.79810824       -2.52902218       -0.32306135
 C            0.53055802       -3.18679085       -0.58129792
 C            2.65324881       -0.27623846       -0.41699977
 C            2.09802186       -1.39504472       -1.04917183
 C            2.78534893        2.11944168       -0.52170973
 C            2.85267138        0.89557677       -1.16579093
 C            0.91665050        3.38067007        0.05364901
 C            1.86053046        3.12471480       -1.01980005
 C           -1.06054166        2.16780446        0.65931261
 C           -0.42234318        3.10788677       -0.16284196
 C           -2.49533375        0.21571546        0.84867624
 C           -2.06147795        1.33907882        0.12843791
 C           -3.05151936       -2.11550863        0.68764394
 C           -2.20870033       -3.05195486       -0.03567282
 C           -3.15320313       -0.83115193        0.17922783
 C           -0.34344079       -2.61720338       -1.51232774
 C           -1.72708920       -2.64750733       -1.28060338
 C            1.48801908       -1.24397409       -2.28449519
 C            0.18512151       -1.73005957       -2.46502153
 C            2.60823861        0.88676110       -2.53914584
 C            2.00647988       -0.28735508       -3.13602050
 C            1.36753240        2.99918529       -2.31228800
 C            1.96128941        2.04478650       -3.14207918
 C           -0.90446561        3.35216467       -1.43953446
 C            0.05048207        3.40867492       -2.53860427
 C           -2.53539999        1.55445281       -1.17336917
 C           -2.06788510        2.63647706       -1.90858992
 C           -3.27119129       -0.76628703       -1.19667461
 C           -2.53517596       -1.75271011       -1.97344039
 C           -3.12804242        0.50405928       -1.86062942
 C           -0.66308188       -1.14248350       -3.41388639
 C           -2.02216338       -1.08111094       -3.14560915
 C           -2.69785509        0.20411739       -3.21555303
 C            1.23791904        0.13321698       -4.28666962
 C            1.29048658        1.58562002       -4.34756632
 C           -0.14902563       -0.26744356       -4.36846850
 C           -0.65016660        3.02855141       -3.75163116
 C           -1.95407874        2.51836411       -3.35838105
 C           -2.12920662        1.21436818       -3.97418065
 C           -0.04226951        2.06714266       -4.64776863
 C           -0.92252024        0.91296553       -4.72712425
