   70
C70 / DATE: 7/ 1/2024 / Origin: Program Fullerene / C70 from database
 C            1.24339691        0.12044292        4.77520800
 C            2.49568703        0.00855199        4.05684154
 C            2.57189575       -1.34478350        3.53905885
 C            0.44098065       -1.04714771        4.43706485
 C            1.23983255       -1.90006761        3.56876505
 C           -0.84518906       -0.57386567        3.95379877
 C            0.42686311        1.29305676        4.54471221
 C           -0.92111798        0.84112209        4.23823418
 C            0.80395307        2.21150741        3.48580689
 C            2.75641415        0.91036748        2.94360589
 C            1.80261288        1.85140472        2.57754529
 C            3.23342085       -1.27526031        2.25987792
 C            3.39708574        0.12831107        1.90940823
 C            2.82997321       -2.13107533        1.24693915
 C            0.68440565       -2.34698310        2.37193134
 C            1.51439130       -2.63428166        1.27487933
 C           -1.29444439       -1.02949516        2.72242334
 C           -0.67587213       -2.14150251        2.15908910
 C           -2.09748925       -0.21031372        1.91853609
 C           -1.44376885        1.72129163        3.20981577
 C           -0.44063064        2.74740505        2.97948683
 C           -2.09714548        1.17531181        2.10490316
 C           -0.42819986        3.36519133        1.74514075
 C            1.67274075        2.21238870        1.23218857
 C            0.73880534        3.18534494        0.89395486
 C            3.23478836        0.48109401        0.57087154
 C            2.24880200        1.41915976        0.22742425
 C            3.42043069       -1.88191252        0.02008520
 C            3.59639072       -0.48798445       -0.35730711
 C            2.96668253       -2.60912959       -1.13649628
 C            0.93293664       -3.16411630        0.10686932
 C            1.65117636       -3.20057014       -1.08749191
 C           -1.28404389       -2.75872349        1.08477303
 C           -0.44927279       -3.32402998        0.04148457
 C           -2.63751337       -0.74273288        0.74648477
 C           -2.39626097       -2.08391098        0.44519922
 C           -3.13245484        0.10692825       -0.24749986
 C           -2.32555403        2.00375987        1.00719720
 C           -1.57544017        3.17542982        0.88592829
 C           -2.95805494        1.49345526       -0.12753465
 C            0.28295400        3.29619708       -0.47978995
 C           -1.13991904        3.59250914       -0.42750393
 C            1.75697321        1.48194458       -1.09377749
 C            0.74692125        2.39571212       -1.43208816
 C            3.18530049       -0.35294038       -1.73416138
 C            3.00209406       -1.69517980       -2.26189938
 C            2.26693785        0.62789388       -2.08052624
 C            0.97635331       -2.86992732       -2.33667675
 C            1.83468050       -1.95824522       -3.07893812
 C           -1.13235933       -3.11455005       -1.22775340
 C           -2.43215390       -2.53397495       -0.93350754
 C           -0.40416901       -2.67043841       -2.33008164
 C           -3.58435869       -0.45438038       -1.44563685
 C           -3.03737087       -1.72684024       -1.87739022
 C           -3.70989563        0.36257562       -2.63561085
 C           -3.01928417        2.31389180       -1.25775423
 C           -1.92660466        3.23488780       -1.50307209
 C           -3.38929658        1.76624070       -2.54699826
 C            0.01547808        2.23612702       -2.61559372
 C           -1.27336560        2.76050848       -2.70491932
 C           -2.28508568        2.03551731       -3.45779193
 C            1.56695224        0.46104450       -3.27231192
 C            1.25109557       -0.88679132       -3.72932638
 C            0.41780002        1.29519033       -3.55343634
 C           -0.98657525       -1.76778751       -3.22898830
 C           -2.34900060       -1.48511136       -3.13222177
 C           -2.86068222       -0.22833185       -3.65979892
 C           -1.92184624        0.78751602       -4.10328193
 C           -0.17375157       -0.92173154       -3.98359548
 C           -0.57903514        0.45483567       -4.20477105
