   70
C70 / DATE: 7/ 1/2024 / Origin: Program Fullerene / C70 from database
 C            1.63395930        0.00875652        4.60337516
 C            0.80949208       -1.14953207        4.32859861
 C            1.35447751       -1.83709338        3.16751417
 C            2.68846302        0.03994160        3.60797565
 C            2.48857282       -1.06663159        2.69529386
 C            2.71398963        1.37300557        3.04830529
 C            0.80619143        1.18750267        4.40204604
 C            1.49952756        2.05152102        3.48084129
 C           -0.56481569       -0.69449521        4.26340818
 C           -0.52125231        0.74353622        4.04528241
 C           -1.43734482       -1.43952650        3.49311151
 C            0.45877508       -2.36268784        2.23951237
 C           -0.87679270       -2.45272132        2.61316616
 C            0.77553735       -2.33544753        0.87490251
 C            2.60279746       -0.81561643        1.33689828
 C            1.87720290       -1.59586499        0.43358143
 C            3.09047772        1.52792935        1.71868713
 C            3.17421382        0.38675723        0.90963869
 C            2.76445286        2.74512461        1.12654699
 C            0.77556765        2.74717310        2.52002313
 C            1.54580186        3.40159736        1.56736106
 C           -1.13993858        1.27516707        2.91157250
 C           -0.51761330        2.30210944        2.17176749
 C           -2.44028882       -0.74171552        2.71223558
 C           -2.23614136        0.59203900        2.37809856
 C           -1.86744298       -2.71304956        1.59817896
 C           -2.87851487       -1.66917270        1.68429827
 C           -0.14081452       -2.83544481       -0.06088141
 C           -1.46023790       -3.10975677        0.33817688
 C            0.19162338       -2.83034516       -1.42489188
 C            2.14446427       -1.48498446       -0.93051003
 C            1.32377381       -2.12663472       -1.86286840
 C            3.46741165        0.53274520       -0.43940766
 C            3.02979384       -0.49738491       -1.36812127
 C            2.86550504        2.90434932       -0.31254275
 C            3.24958201        1.81961581       -1.08372559
 C            0.90832432        3.98625128        0.41489145
 C            1.73449717        3.70431848       -0.74757749
 C           -1.15531320        2.81556829        1.02513630
 C           -0.44165822        3.58334373        0.10912775
 C           -2.90079712        1.10633229        1.27727899
 C           -2.32614714        2.22582152        0.56394624
 C           -3.42896962       -1.18245124        0.49867577
 C           -3.48630984        0.19893680        0.29682319
 C           -2.46051600       -3.12686678       -0.61816662
 C           -3.40694676       -2.02281346       -0.61579965
 C           -0.72000252       -3.34307102       -2.35507389
 C           -2.11393413       -3.41661137       -1.98689581
 C           -0.71511002       -2.85342251       -3.71783414
 C            1.46470915       -1.78399178       -3.21229010
 C            0.38030798       -2.01985924       -4.14061600
 C            2.78819275        0.15985809       -2.64016792
 C            2.55153883        1.55793406       -2.33039882
 C            1.94413432       -0.45975127       -3.53993139
 C            0.86907019        3.18934876       -1.79525889
 C           -0.49234933        3.22040194       -1.30045899
 C            1.27820004        2.09319562       -2.53850265
 C           -2.46386581        1.96842347       -0.86298310
 C           -3.21828515        0.74472409       -1.02787870
 C           -1.38894352        2.23412131       -1.70206955
 C           -3.34470847       -1.43672530       -1.94115207
 C           -2.82832067       -2.46353016       -2.82345652
 C           -1.93121355       -2.07283378       -3.88547688
 C           -2.90536956       -0.12207454       -2.06430589
 C           -0.16971774       -0.71041512       -4.46962120
 C            0.76774411        0.27104664       -3.97115392
 C            0.31336504        1.30742884       -3.16320520
 C           -0.98776165        1.26499914       -2.63184358
 C           -1.52414942       -0.68418187       -3.96810288
 C           -1.84015068        0.18577946       -2.92310701
