   70
C70 / DATE: 7/ 1/2024 / Origin: Program Fullerene / C70 from database
 C            0.96028973        0.02934429        4.82928879
 C            2.29671566       -0.25923773        4.36750769
 C            2.33130917       -1.68373206        4.08828356
 C            0.19190905       -1.20528912        4.71303090
 C            0.95841659       -2.07613541        3.85156596
 C           -1.14075546       -0.83877437        4.30390211
 C            0.19948228        1.04376827        4.13444869
 C           -1.17231982        0.61252826        4.23695149
 C            0.64115509        1.52553290        2.89868865
 C            2.76238996        0.39641855        3.16135588
 C            1.84200427        1.05617935        2.34807326
 C            3.27663788       -1.86651385        3.01973386
 C            3.67575166       -0.54113848        2.55522006
 C            2.83801663       -2.57444041        1.84051118
 C            0.53349249       -2.30643735        2.53447934
 C            1.46857163       -2.71814347        1.57910408
 C           -1.62591925       -1.31362760        3.02418241
 C           -0.74312000       -1.89898958        2.11746687
 C           -2.05148041        0.95835757        3.14936502
 C           -2.51030669       -0.27465868        2.54722885
 C           -0.28154919        2.15024798        2.05946972
 C           -1.65670750        1.95133098        2.26819457
 C            0.14950592        2.57557660        0.80269459
 C            2.03589557        1.09891373        0.95546429
 C            1.16988214        1.86235129        0.17055955
 C            3.73610415       -0.61632929        1.10916329
 C            3.66872476       -2.03034604        0.79555613
 C            2.97364935        0.26081415        0.33458148
 C            3.33987652       -2.36973305       -0.49281815
 C            1.07703514       -2.88272557        0.24635487
 C            2.09687659       -3.09030289       -0.68122039
 C           -1.03546761       -1.81256563        0.75115230
 C           -0.15581829       -2.36139216       -0.18451842
 C           -2.79842227       -0.21156264        1.19563781
 C           -2.16638648       -1.10040369        0.32096605
 C           -2.50058376        2.15954709        1.18649837
 C           -3.17334492        1.03090052        0.69480195
 C           -0.72942981        3.33114851        0.03867581
 C           -2.14193530        3.17726084        0.31542421
 C           -0.57250861        3.36376301       -1.40049493
 C            1.13927265        1.67740683       -1.21919446
 C            0.30051351        2.47009846       -2.01025101
 C            2.82756356       -0.04649119       -1.02291152
 C            3.27090502       -1.29906944       -1.45815265
 C            1.92323886        0.67794520       -1.81136270
 C            1.81098889       -2.99132440       -2.09089011
 C            2.64808085       -1.91132926       -2.60565336
 C           -0.47935388       -2.31173637       -1.55146519
 C            0.46075173       -2.69812926       -2.50560120
 C           -2.44078188       -0.98307631       -1.04663631
 C           -1.58185517       -1.56445892       -1.98129275
 C           -3.73636050        1.04746933       -0.57101735
 C           -3.39124426       -0.04207021       -1.46549225
 C           -2.87129149        3.34868882       -0.92128322
 C           -1.89420838        3.56269791       -1.97488125
 C           -3.75032800        2.27994444       -1.33637739
 C           -3.34705313        0.49918863       -2.81375972
 C           -2.28692821        2.75710853       -3.11524273
 C           -3.43127161        1.95029821       -2.71210155
 C            0.06803130        2.11607349       -3.33601355
 C           -1.29087120        2.15400505       -3.86739292
 C            1.64518227        0.24940404       -3.12069210
 C            1.80585636       -1.09524931       -3.43682942
 C            0.61445163       -1.88252798       -3.69115194
 C            0.71880526        0.94510434       -3.88569761
 C           -1.68642884       -1.21410234       -3.33367156
 C           -2.46166694       -0.04900755       -3.72381672
 C           -1.56307841        0.84665801       -4.43443902
 C           -0.49352821       -1.21040942       -4.16290637
 C           -0.29502864        0.16538582       -4.58035380
