   70
C70 / DATE: 7/ 1/2024 / Origin: Program Fullerene / C70 from database
 C            1.26988984       -0.10340700        4.07117587
 C            2.37492737       -0.27432155        3.14415985
 C            2.30611862       -1.63278498        2.62871213
 C            0.40612908       -1.26681014        3.95602866
 C            1.02703999       -2.19302364        3.03856624
 C           -0.92922687       -0.80400172        3.66110423
 C            0.44184295        1.08136274        3.96376725
 C           -0.92677245        0.65013672        3.73246694
 C            0.92887688        2.16957702        3.26242959
 C            2.72110846        0.76645320        2.28662678
 C            2.11852252        2.01706424        2.43255026
 C            3.37616987        0.46703245        1.09585139
 C            2.78196216       -1.91100771        1.34894448
 C            3.44815755       -0.91383047        0.64117525
 C            2.23296739       -2.98840912        0.65770216
 C            0.24979345       -2.83829333        2.08507903
 C            0.93170199       -3.49539559        1.06556564
 C           -1.66079412       -1.42353197        2.65381877
 C           -1.08980071       -2.45923311        1.89659650
 C           -2.77984398       -0.75033115        2.16980010
 C           -1.75085451        1.36757064        2.86467791
 C           -2.82872261        0.69933855        2.28431871
 C           -0.00321661        3.01425792        2.54065311
 C           -1.31333069        2.58370880        2.32460072
 C            1.94887817        2.86690311        1.26325838
 C            0.73723804        3.64173213        1.45665121
 C            3.16599657        1.31258991       -0.07044683
 C            2.25724888        2.35800717        0.00494498
 C            3.41009446       -0.90256441       -0.81358182
 C            3.19322946        0.46958790       -1.24710987
 C            2.29100461       -3.03067281       -0.79542057
 C            2.78478457       -1.93514710       -1.50414888
 C            0.22879770       -3.94689630       -0.12041586
 C            1.10436678       -3.73771192       -1.26268775
 C           -1.81872293       -3.00766928        0.83993960
 C           -1.13059048       -3.70209147       -0.23568094
 C           -3.35343034       -1.11069940        0.88479761
 C           -2.89058241       -2.23761958        0.23414254
 C           -3.44193265        1.21378727        1.07152630
 C           -3.52091923        0.11553870        0.12639126
 C           -2.07126885        3.21667618        1.34032595
 C           -3.07531890        2.46322954        0.60968817
 C            0.04695383        4.09791885        0.34670582
 C           -1.40372535        4.08816964        0.38693792
 C            1.42237074        2.63288909       -1.08293349
 C            0.45597427        3.63706018       -0.97046145
 C            2.31241320        0.71667074       -2.29187454
 C            1.43329474        1.80365801       -2.21470737
 C            2.33394155       -1.68718947       -2.79866789
 C            2.07414449       -0.31319987       -3.20398240
 C            0.56093818       -3.42182979       -2.50001126
 C            1.29438738       -2.52404055       -3.37033851
 C           -1.67704212       -3.22007941       -1.49670706
 C           -2.61058254       -2.15394672       -1.18694342
 C           -0.85180902       -3.08376010       -2.60229699
 C           -2.92151320        0.24175400       -1.12738782
 C           -2.45579302       -0.90377245       -1.78830311
 C           -2.80846451        2.63549631       -0.80786640
 C           -1.88489669        3.74848455       -0.94070447
 C           -0.73239164        3.59106040       -1.80728514
 C           -2.63691072        1.51765329       -1.62551113
 C            0.41315646        1.92186580       -3.15694106
 C           -0.79525521        2.63915424       -2.80899515
 C           -1.86739377        1.65236607       -2.77631790
 C            0.86943619       -0.30676008       -4.01956318
 C            0.33375980       -1.65508299       -4.02701221
 C           -0.96388377       -1.88719027       -3.41846346
 C           -1.69535613       -0.79178038       -2.95735045
 C           -0.01632896        0.74714816       -3.88502887
 C           -1.38094321        0.46818232       -3.45653404
