   70
C70 / DATE: 7/ 1/2024 / Origin: Program Fullerene / C70 from database
 C            1.62052571       -0.33366132        5.03381200
 C            0.75073321       -1.49096324        4.98577985
 C            1.23511599       -2.35293765        3.92536893
 C            2.60376542       -0.47094222        3.96969125
 C            2.29860395       -1.66475268        3.21912882
 C            2.63257545        0.77555509        3.25216100
 C            0.81436600        0.83387192        4.72526846
 C            1.54829906        1.60819979        3.75609669
 C           -0.57483503       -1.03806893        4.59428215
 C           -0.50984096        0.38995159        4.35356172
 C            0.08409315       -2.75849376        3.15375712
 C           -1.02549917       -1.89156763        3.50898546
 C            0.26033136       -2.99735226        1.80696014
 C            2.21430002       -1.59301805        1.82721614
 C            1.42227934       -2.53474563        1.17902889
 C            2.83419761        0.76235424        1.87612337
 C            2.53080826       -0.40481448        1.14898352
 C            2.66006227        1.98850801        1.25802286
 C            0.84260225        2.34683717        2.81629048
 C            1.61198065        2.84989243        1.78286198
 C           -1.06114844        0.87714136        3.17334739
 C           -0.48639637        1.98883455        2.53418027
 C           -1.75913277       -1.32231476        2.46409952
 C           -1.94603820        0.06226394        2.46498070
 C           -0.88793727       -3.03947078        1.03961578
 C           -1.81797548       -2.01542214        1.24392974
 C           -0.74376006       -3.59039541       -0.21746157
 C            1.46658147       -2.61165363       -0.20851169
 C            0.58775932       -3.52244809       -0.78364299
 C            2.27310975       -0.32713615       -0.23686370
 C            1.82064901       -1.46071659       -0.93004357
 C            2.59430311        2.06061113       -0.17949063
 C            2.34214180        0.90326821       -0.90354780
 C            0.96331962        3.47600856        0.65969617
 C            1.83603744        3.25933796       -0.48109657
 C           -1.11794599        2.50642498        1.39137314
 C           -0.41006462        3.32839418        0.50312105
 C           -2.70100948        0.63438715        1.45736900
 C           -2.34207529        1.96189506        0.99926820
 C           -2.44651993       -1.41618496        0.14035730
 C           -3.02640318       -0.16238215        0.28782062
 C           -1.64224836       -3.17634001       -1.26390118
 C           -2.24348334       -1.92659109       -1.14634528
 C            0.44588606       -3.56359858       -2.21613278
 C           -0.98410431       -3.55784737       -2.49658894
 C            1.50464678       -1.36315954       -2.29852743
 C            1.02557281       -2.48757857       -2.98010010
 C            1.83202446        1.02854747       -2.19727748
 C            1.47717625       -0.10766687       -2.92248544
 C            1.30490473        3.39661161       -1.74745067
 C            1.46050372        2.29232909       -2.67655894
 C           -0.96278198        3.66185815       -0.73318112
 C           -0.06673878        3.86033431       -1.86168098
 C           -2.78136653        2.07031310       -0.37969379
 C           -3.07806734        0.72958876       -0.85536627
 C           -2.13272999        2.95158703       -1.22190446
 C           -2.31348304       -1.06872798       -2.25819533
 C           -2.55955992        0.29764336       -2.07236182
 C           -1.18317481       -2.73849336       -3.66467031
 C            0.13594518       -2.31893812       -4.11085112
 C           -1.97327990       -1.53331580       -3.52992293
 C            0.79492012        0.06846856       -4.13150902
 C           -0.01454523       -1.00099757       -4.67059709
 C           -1.40293542       -0.60051094       -4.47357952
 C            0.38050068        2.40351977       -3.64167917
 C           -0.65262232        3.21413760       -3.02110015
 C           -1.87621993        2.55664760       -2.59664786
 C           -2.08673808        1.23897446       -3.00033945
 C           -0.01421620        1.25498109       -4.29978061
 C           -1.38574430        0.80392904       -4.12345195
