   70
C70 / DATE: 7/ 1/2024 / Origin: Program Fullerene / C70 from database
 C            1.66348430        0.05918460        4.52439396
 C            0.88273307       -1.16264251        4.52271799
 C            1.34008075       -1.99828607        3.42307039
 C            2.64787931       -0.05186454        3.46820929
 C            2.48372174       -1.34320839        2.82268818
 C            2.54518101        1.13215611        2.63145413
 C            0.76887319        1.14609124        4.16998065
 C            1.30423342        1.79610813        2.98476073
 C           -0.51542502       -0.78271375        4.54501355
 C           -0.57831995        0.60656511        4.11306788
 C           -1.41939784       -1.67382850        3.99453994
 C            0.37880339       -2.59050449        2.60861694
 C           -0.89611738       -2.73824578        3.14987283
 C            0.54215795       -2.55603710        1.21296749
 C            2.63916044       -1.37751747        1.44775344
 C            1.75157093       -2.12137141        0.66489052
 C            2.84360879        0.98210880        1.28266620
 C            3.25332287       -0.27908025        0.86229654
 C            2.19733654        1.80016647        0.35108567
 C            0.43049154        2.13941500        1.96120831
 C            0.93701789        2.31353485        0.66868832
 C           -1.38116215        0.94489792        3.02543881
 C           -0.93787039        1.92760340        2.13952965
 C           -2.55880788       -1.14099760        3.27909392
 C           -2.43668972        0.10194743        2.65482764
 C           -1.98236552       -3.17360954        2.30139893
 C           -3.09447225       -2.26329697        2.53753156
 C           -0.55095251       -2.75933833        0.36144046
 C           -1.76099037       -3.21806506        0.87394826
 C           -0.50309999       -2.27439245       -0.95003483
 C            1.88751326       -2.03945051       -0.72539151
 C            0.73368467       -1.97090762       -1.52053700
 C            3.66711882       -0.41393780       -0.44482003
 C            3.07747650       -1.49620067       -1.20539819
 C            2.59180634        1.69987080       -0.98645845
 C            3.56973667        0.74964765       -1.29364459
 C            1.76801197        2.20847125       -2.00118161
 C            0.08485754        2.75138747       -0.34444050
 C            0.50793044        2.73474198       -1.67658674
 C           -1.81252958        2.39759404        1.17819611
 C           -1.26936839        2.93459034       -0.05669188
 C           -3.18650477        0.38916274        1.50446107
 C           -2.97655974        1.59584612        0.84292903
 C           -3.72163845       -2.00841221        1.26350989
 C           -2.98705733       -2.76172823        0.25829366
 C           -3.80084623       -0.64095801        0.79031964
 C           -1.66870624       -1.80819262       -1.56977361
 C           -2.88748820       -1.92288303       -0.91669238
 C           -3.61682348       -0.69975919       -0.64775600
 C           -1.55597444       -0.80746419       -2.52677849
 C            0.77208264       -1.34520802       -2.77742961
 C           -0.38590369       -0.73533032       -3.27759088
 C            3.19119927       -1.13026796       -2.60248883
 C            3.69446699        0.23776068       -2.63991645
 C            1.99816126       -1.15235424       -3.41311214
 C            2.13252312        2.02824357       -3.34310139
 C            3.00001888        0.92498204       -3.69859112
 C            2.15548748       -0.06061397       -4.35396279
 C           -0.31394237        0.19025280       -4.31914780
 C            1.11184327        2.02371741       -4.36832168
 C            0.97436422        0.63941554       -4.79993747
 C           -0.44078075        2.96945964       -2.67762666
 C           -0.20761908        2.49294411       -4.02398583
 C           -1.12588110        1.38158208       -4.22596607
 C           -2.25937034        2.70320684       -1.09185808
 C           -3.12987993        1.64225564       -0.60367833
 C           -3.21339473        0.44703887       -1.31787200
 C           -2.41541725        0.29954888       -2.45063296
 C           -1.82867109        2.65594032       -2.40577593
 C           -2.10791228        1.45122892       -3.16367974
