   70
C70 / DATE: 7/ 1/2024 / Origin: Program Fullerene / C70 from database
 C            1.56556541        0.06731881        4.57142413
 C            0.76818061       -1.14395439        4.53813417
 C            1.35462180       -2.04679176        3.56357788
 C            2.63342133       -0.07979584        3.59950748
 C            2.54514061       -1.40329111        3.02137932
 C            2.57216692        1.04968602        2.70004967
 C            0.71707871        1.16158156        4.13042171
 C            1.34369961        1.77256436        2.98173846
 C           -0.61403728       -0.75263420        4.36540599
 C           -0.62633440        0.65091365        3.97913238
 C           -1.45339703       -1.62058870        3.68750162
 C            0.51563904       -2.75956577        2.70500509
 C           -0.86987752       -2.68201992        2.87116882
 C            1.02918873       -3.20562417        1.48886256
 C            2.82745535       -1.55255285        1.66802279
 C            2.28445984       -2.65244084        1.01110335
 C            2.90441918        0.85075664        1.36680876
 C            3.22537224       -0.43548464        0.92072228
 C            2.42143385        1.76952681        0.44171234
 C            0.55638829        2.15407031        1.90146925
 C            1.19905150        2.39568493        0.69605733
 C           -1.37696346        1.03022209        2.86817679
 C           -0.81167196        1.85524120        1.87954768
 C           -2.55441437       -1.05993594        2.92735633
 C           -2.51710291        0.28776922        2.56965883
 C           -1.74326019       -2.87493518        1.72022970
 C           -2.91996497       -2.04890727        1.92874121
 C            0.14754845       -3.34902939        0.33799349
 C           -1.18450407       -2.97329518        0.44859583
 C            2.25989588       -2.68979304       -0.43966517
 C            0.89571183       -2.97638335       -0.84824312
 C            3.53360055       -0.60485744       -0.42793232
 C            2.97943188       -1.74345903       -1.14531771
 C            2.91651936        1.73651813       -0.85842361
 C            3.46583520        0.54243450       -1.32485891
 C            2.43084869        2.66198297       -1.77837628
 C            0.46523442        2.90836978       -0.36112461
 C            1.15921981        3.30657715       -1.49573497
 C           -1.55419476        2.16302414        0.72848276
 C           -0.90309543        2.62237428       -0.42683709
 C           -3.36413341        0.73192352        1.56533456
 C           -2.87703606        1.73660105        0.63720864
 C           -3.65287074       -1.63393948        0.82983519
 C           -4.10847617       -0.25597537        0.80328833
 C           -1.82912641       -2.37875975       -0.64062016
 C           -3.14645795       -1.93969467       -0.49698055
 C            0.28407476       -2.18117833       -1.81198024
 C           -1.10271295       -2.03424833       -1.78813234
 C            2.43144927       -1.24064793       -2.39110104
 C            3.07161072        0.03461404       -2.63205084
 C            1.06747921       -1.37322900       -2.64768527
 C            2.43970654        2.31027976       -3.18588855
 C            2.48828338        0.90461063       -3.53684989
 C            0.44282119        3.45666824       -2.74152033
 C            1.25794402        2.88628171       -3.80004446
 C           -1.54932928        2.51961817       -1.67110515
 C           -0.87840422        2.87779506       -2.83848980
 C           -3.43684408        1.44369144       -0.67032487
 C           -4.13803216        0.17455989       -0.58013174
 C           -3.67389471       -0.93015795       -1.39975915
 C           -2.66024584        1.68873253       -1.79283636
 C           -1.72791177       -1.34060300       -2.81712315
 C           -2.96297064       -0.62664503       -2.54768082
 C           -2.69386598        0.76901622       -2.84071545
 C            0.46175681       -0.50924196       -3.56707965
 C            1.19236303        0.55669907       -4.10118942
 C            0.49983419        1.80037059       -4.39256206
 C           -0.87203184        1.93654029       -3.94962382
 C           -0.92741945       -0.49563727       -3.68734708
 C           -1.62387021        0.78067931       -3.81831873
