   70
C70 / DATE: 7/ 1/2024 / Origin: Program Fullerene / C70 from database
 C            1.66630521       -0.03646467        4.49613034
 C            0.85069694       -1.23301831        4.39555929
 C            1.39854059       -2.06663598        3.33781217
 C            2.67552053       -0.10454661        3.45744814
 C            2.59177903       -1.41137184        2.83218274
 C            2.53352081        1.06218776        2.60430023
 C            0.81460122        1.10064241        4.20339134
 C            1.35901869        1.78870557        3.04526341
 C           -0.53543089       -0.81866839        4.30292456
 C           -0.55695425        0.62785348        4.13482308
 C           -1.39747449       -1.58955609        3.53877845
 C            0.52957483       -2.66996011        2.42942746
 C           -0.84682398       -2.62036800        2.66864901
 C            0.99758285       -2.98783143        1.15025084
 C            2.85369408       -1.49142976        1.47335112
 C            2.24403904       -2.50530496        0.73737748
 C            2.73765911        0.89008903        1.24110634
 C            3.24964554       -0.32947861        0.80996723
 C            2.02359982        1.67575246        0.33127699
 C            0.46971971        2.25623407        2.08863273
 C            0.87895468        2.35564421        0.75620762
 C           -1.39404183        1.18467352        3.17174736
 C           -0.89123232        2.22064629        2.37613548
 C           -2.46886744       -0.93437140        2.80977275
 C           -2.50240385        0.45361104        2.72945094
 C           -1.78306754       -2.80734289        1.57073920
 C           -2.72642005       -1.70392335        1.60321321
 C            0.10980921       -3.50863977        0.20836656
 C           -1.30953630       -3.25083544        0.35026712
 C            0.41605267       -3.41229557       -1.20637036
 C            2.66880948       -2.70778301       -0.57326471
 C            1.70478662       -3.09289250       -1.59152706
 C            3.67262189       -0.43079581       -0.50426476
 C            3.55703266       -1.72012909       -1.16014571
 C            2.27483504        1.52017289       -1.03472966
 C            3.23183348        0.58477710       -1.44443283
 C            1.40478268        2.07702023       -1.97785871
 C            0.00253823        2.90535421       -0.18244205
 C            0.26613557        2.77622190       -1.55016444
 C           -1.75321899        2.91082484        1.54103442
 C           -1.26104892        3.33371918        0.24008397
 C           -3.33345838        1.01499655        1.76663271
 C           -3.08681460        2.38053664        1.35545517
 C           -3.05113899       -1.01923771        0.43279226
 C           -3.62349875        0.23860271        0.56740080
 C           -1.75196571       -2.58262235       -0.86264730
 C           -0.69949115       -2.73767939       -1.85040794
 C           -2.43323766       -1.36971133       -0.77305200
 C           -0.45268754       -1.69755216       -2.73685605
 C            1.90281191       -2.22865548       -2.74217924
 C            3.13172253       -1.48648326       -2.52658716
 C            3.11361307       -0.05120149       -2.74723221
 C            0.82095515       -1.55687969       -3.30724851
 C            1.54868221        1.71352111       -3.32084538
 C            2.18123114        0.45129624       -3.63607524
 C            1.10548349       -0.42779698       -4.07184158
 C            0.41615141        1.79474419       -4.21794071
 C            0.01849692        0.42432882       -4.50727016
 C           -0.74441847        3.10384742       -2.45960852
 C           -0.75977134        2.49724535       -3.77356395
 C           -2.38472273        3.28976779       -0.68288871
 C           -3.41449578        2.48605561       -0.05202909
 C           -3.63955702        1.14399527       -0.56234931
 C           -2.11922459        3.04501470       -2.01640065
 C           -2.29847317       -0.42686117       -1.80375040
 C           -1.39574659       -0.67231231       -2.85329798
 C           -1.28273253        0.22866762       -3.90780652
 C           -1.86162154        1.54445232       -3.77395665
 C           -3.00777125        0.78393976       -1.74631747
 C           -2.65548940        1.82549466       -2.60059951
