   70
C70 / DATE: 7/ 1/2024 / Origin: Program Fullerene / C70 from database
 C            1.47980537        0.01477287        4.75104729
 C            0.67195388       -1.17741588        4.59042867
 C            1.33331059       -2.05102137        3.63770284
 C            2.62477940       -0.10485146        3.86547228
 C            2.53749072       -1.37133557        3.17705821
 C            2.68083357        1.09115741        3.06281803
 C            0.68493192        1.14385027        4.29474528
 C            1.45848416        1.84595206        3.30506025
 C           -0.67815642       -0.74972872        4.29818554
 C           -0.61556297        0.65085461        3.90646121
 C           -1.46748030       -1.59426795        3.54406294
 C            0.55652297       -2.75203521        2.71361413
 C           -0.83605826       -2.68090294        2.79860836
 C            1.14615325       -3.14882975        1.51460534
 C            2.85633668       -1.42440043        1.82457847
 C            2.38754030       -2.51790859        1.10233116
 C            3.13107905        1.00324347        1.74976128
 C            3.25370758       -0.25971309        1.14478669
 C            2.87461668        2.11252596        0.94979772
 C            0.81508690        2.39553606        2.20414449
 C            1.65447063        2.85771472        1.20492609
 C           -1.15692590        1.03864463        2.67620413
 C           -0.47121919        1.94387418        1.85021057
 C           -2.43492556       -0.99878122        2.65084659
 C           -2.20148476        0.28258773        2.14685735
 C           -1.64546261       -2.90201747        1.60625112
 C           -2.81647361       -2.05048779        1.73487251
 C            0.32838416       -3.33077228        0.32222240
 C           -1.02248267       -3.02548159        0.36468171
 C            2.42032238       -2.50582220       -0.34704760
 C            1.11015168       -2.91795630       -0.82628207
 C            3.54788585       -0.33820060       -0.21890728
 C            3.07761707       -1.47529767       -0.99387160
 C            3.06824171        2.04551772       -0.48603171
 C            3.43201868        0.84499023       -1.05932473
 C            1.09682858        3.24588216       -0.06209533
 C            2.02455370        2.84076301       -1.10626216
 C           -0.99061061        2.24849828        0.57791161
 C           -0.26041600        3.08043101       -0.28343183
 C           -2.77081243        0.63114980        0.92277345
 C           -2.13891420        1.58380629        0.10957027
 C           -3.48714736       -1.68063216        0.58985801
 C           -3.68490623       -0.26350113        0.36423267
 C           -1.65978062       -2.53443677       -0.77906602
 C           -3.00728453       -2.19839689       -0.67300229
 C            0.49913027       -2.19922069       -1.84970609
 C           -0.89531554       -2.04430615       -1.85471333
 C            2.53233197       -0.97027870       -2.23994922
 C            2.82262689        0.45105965       -2.31620248
 C            1.29594125       -1.42218148       -2.69436104
 C            1.49590542        2.48258796       -2.34352905
 C            1.89960440        1.28017520       -2.95401236
 C           -0.69286180        3.27440583       -1.58603701
 C            0.26050669        3.04784980       -2.66236527
 C           -2.63978257        1.85334493       -1.17745008
 C           -1.96578394        2.74064510       -2.00572720
 C           -4.05057693       -0.14240130       -1.02593123
 C           -3.62247049       -1.37239515       -1.68538269
 C           -3.51238803        0.95648278       -1.78759778
 C           -1.51746913       -1.40291971       -2.93868509
 C           -2.84176956       -0.98684195       -2.83595003
 C           -3.15877823        0.40802383       -3.08433106
 C            0.70061152       -0.71157760       -3.72560047
 C            1.08903849        0.67726110       -3.91767956
 C           -0.73207464       -0.79845669       -3.91503416
 C           -0.47395094        2.60070178       -3.82507666
 C           -1.86336892        2.43828802       -3.42868716
 C           -2.31687690        1.14217907       -3.90370400
 C           -0.04649838        1.38480367       -4.47222195
 C           -1.17273413        0.46521329       -4.49143105
