   70
C70 / DATE: 7/ 1/2024 / Origin: Program Fullerene / C70 from database
 C            1.48592764       -0.18265389        4.27718405
 C            2.64302980       -0.36232232        3.41371619
 C            2.40069108       -1.55256164        2.61719029
 C            0.64407338       -1.35624081        4.13958042
 C            1.33126159       -2.29074759        3.26986380
 C           -0.68799551       -0.91691310        3.75967008
 C            0.64840088        0.99056251        4.09382340
 C           -0.65559154        0.53008038        3.64488720
 C            1.20719094        2.11402818        3.50408393
 C            3.18778884        0.75340511        2.79943192
 C            2.59441427        2.05241223        3.07402888
 C            3.46417216        0.70199692        1.37378702
 C            2.42774504       -1.47427803        1.22152156
 C            2.91353998       -0.32218683        0.59897485
 C            1.74355561       -2.43215591        0.47195569
 C            0.55748293       -3.13679972        2.49688834
 C            0.97086741       -3.38778113        1.13334616
 C           -1.37979237       -1.65280218        2.80051453
 C           -0.87746445       -2.90460872        2.43726073
 C           -2.26249595       -0.99326745        1.93945451
 C           -1.26081629        1.12132924        2.54294077
 C           -2.23372011        0.40385967        1.84904224
 C            0.46135030        2.81890856        2.47436458
 C           -0.71936208        2.28081294        1.97549028
 C            2.72641759        2.86037603        1.87666981
 C            3.43130924        2.06998014        0.88438657
 C            1.41334750        3.38284927        1.53600877
 C            3.12356824        2.28673494       -0.44630229
 C            2.66508617       -0.10531116       -0.76017276
 C            2.94578349        1.13989113       -1.31670071
 C            1.57438745       -2.25243651       -0.90187595
 C            1.89454007       -1.01957585       -1.48320577
 C            0.83086884       -3.19421363       -1.61058790
 C           -0.18225293       -3.95905394        0.46258363
 C           -1.35646079       -3.55481140        1.22645262
 C           -0.21682503       -3.92404526       -0.92145120
 C           -2.97518927       -1.73705128        0.99911483
 C           -2.45712364       -3.02369445        0.56866433
 C           -3.54826791       -1.08299266       -0.16416700
 C           -2.96769226        1.05790867        0.86489608
 C           -3.58005450        0.29832851       -0.21192990
 C           -1.17938065        2.71646755        0.73288614
 C           -2.42582254        2.27815995        0.29663544
 C            1.05946334        3.45553032        0.19270087
 C            2.04399797        3.20563271       -0.76377317
 C           -0.28475661        3.31352277       -0.16563459
 C            2.16935744        1.59637858       -2.45394019
 C            1.65121171        2.92211887       -2.12978461
 C            1.37217270       -0.65474737       -2.73715888
 C            1.35514775        0.68813342       -3.11882651
 C            0.32235782       -2.86523429       -2.92162141
 C            0.56927756       -1.54193760       -3.44799636
 C           -1.46574735       -3.62127748       -1.60123916
 C           -2.51858499       -3.06558229       -0.88461523
 C           -3.12554540       -1.82194431       -1.34153198
 C           -1.12150548       -3.06055644       -2.89404009
 C           -0.68948408       -1.05962438       -3.98466954
 C           -2.58949642       -1.13994261       -2.43556972
 C           -1.72964972       -1.80840514       -3.30684794
 C           -3.26427069        0.97064248       -1.45912784
 C           -2.74851924        2.28881347       -1.11805977
 C           -2.70088973        0.25273872       -2.51573617
 C           -0.64044846        3.47245165       -1.50648054
 C            0.36857072        3.25942355       -2.53204924
 C           -1.89953103        2.93639405       -1.99910372
 C            0.28913702        1.16748151       -3.88128200
 C           -0.85190533        0.30541571       -4.13341150
 C           -1.99877388        0.93947108       -3.50593597
 C           -0.23914336        2.48870819       -3.59814013
 C           -1.65293488        2.33680838       -3.29703073
