   70
C70 / DATE: 7/ 1/2024 / Origin: Program Fullerene / C70 from database
 C            1.19959841       -0.17850248        4.86291969
 C            2.41606582       -0.37171924        4.09974267
 C            2.26282075       -1.60524051        3.34047139
 C            0.33453719       -1.31463829        4.58598644
 C            0.87640081       -1.99814014        3.42626264
 C           -1.02049385       -0.82184331        4.52439934
 C            0.41457504        1.02689338        4.65742599
 C           -0.97783534        0.62955008        4.64847154
 C            0.84761944        1.99361074        3.75574870
 C            2.84355029        0.65902839        3.17084519
 C            2.10583807        1.82744422        3.03917037
 C            2.82006876       -1.38053550        2.02720496
 C            3.30384959       -0.01666185        1.97548997
 C            2.14602793       -1.85274821        0.90655044
 C            0.13020863       -2.06729121        2.24770049
 C            0.79208409       -2.19480406        1.01368301
 C           -1.81062792       -1.12318315        3.35005638
 C           -1.24619449       -1.80584884        2.27365164
 C           -1.86752490        1.17706167        3.63757332
 C           -2.59659322        0.05695876        3.06593489
 C           -0.10329478        2.62533085        2.84835774
 C           -1.42929972        2.19443800        2.79033807
 C            1.94945065        2.41973515        1.72103074
 C            0.60060177        2.94306249        1.61312928
 C            3.23315104        0.61823516        0.74417116
 C            2.50989461        1.80932799        0.60772708
 C            2.61621150       -1.41711409       -0.32698270
 C            3.31007535       -0.19984449       -0.37329093
 C            2.00539050       -1.89980591       -1.48102784
 C            0.03784323       -2.36687571       -0.15460782
 C            0.65956512       -2.28621082       -1.41311809
 C           -1.94603324       -1.78723836        1.07231094
 C           -1.35239063       -2.33836929       -0.06110473
 C           -3.11638012        0.18745477        1.78860641
 C           -3.02912406       -0.90820914        0.93439707
 C           -2.15740592        2.43176251        1.62734402
 C           -3.15700069        1.45859725        1.22444115
 C           -0.07493608        2.84786767        0.39731481
 C           -1.46286741        2.85437352        0.41900037
 C            1.97363034        2.11588344       -0.64429293
 C            0.60288439        2.38304379       -0.73796883
 C            3.44074996        0.44346865       -1.59075029
 C            2.65469945        1.64951246       -1.76197677
 C            2.59135704       -1.58550562       -2.70380996
 C            3.32175014       -0.34171403       -2.79682147
 C            1.82452921       -1.70842954       -3.92050716
 C           -0.09878985       -2.45758839       -2.58600729
 C            0.44497264       -2.12427473       -3.82703024
 C           -2.12482437       -2.53397707       -1.19571168
 C           -1.48911005       -2.52019713       -2.49765739
 C           -3.68111553       -0.82436868       -0.28765755
 C           -3.37030221       -1.80319622       -1.31004703
 C           -3.33589280        1.58811111       -0.21231188
 C           -2.20263865        2.34502576       -0.72023105
 C           -3.76290987        0.47957120       -0.92820821
 C           -0.11702911        1.96868538       -1.87302314
 C           -1.51314283        1.86626169       -1.82825124
 C            1.95504292        1.52965734       -3.02482809
 C            2.63582252        0.48266484       -3.77104091
 C            1.85203816       -0.41221347       -4.59328790
 C            0.56340857        1.59382096       -3.03635403
 C           -0.31283255       -1.24198214       -4.69370127
 C            0.48245430       -0.04547080       -4.87749241
 C           -0.14318624        0.99957780       -4.08344456
 C           -2.29063017       -1.67396451       -3.37807254
 C           -3.35460237       -1.10647679       -2.58094247
 C           -3.29412524        0.31206402       -2.29035984
 C           -2.18300646        1.03242319       -2.72873797
 C           -1.61999344       -0.82298801       -4.24039904
 C           -1.51663409        0.58666757       -3.86640065
