   70
C70 / DATE: 7/ 1/2024 / Origin: Program Fullerene / C70 from database
 C            1.36969496        0.11292169        5.17199731
 C            0.56835234       -1.09024029        5.05658648
 C            1.38380019       -2.10301337        4.41331498
 C            2.59159662       -0.09613357        4.41114306
 C            2.60723955       -1.46414669        3.95099546
 C            2.67070449        0.95231391        3.41975614
 C            0.63483112        1.19652172        4.53897496
 C            1.51638737        1.82201612        3.58466478
 C           -0.69666065       -0.72500896        4.44351710
 C           -0.61681816        0.67250305        4.04498469
 C           -1.30553151       -1.62182303        3.57781036
 C            0.82057491       -2.83792197        3.29494497
 C           -0.53910133       -2.74088210        3.03484789
 C            2.72557543       -1.71314261        2.52445852
 C            1.74822570       -2.73075211        2.18276940
 C            3.07261128        0.65700517        2.11776097
 C            2.93068229       -0.65451354        1.63149787
 C            2.97172055        1.70938582        1.21946604
 C            0.97635350        2.37343983        2.42942234
 C            1.89242316        2.66096404        1.43149474
 C           -1.03229651        1.03692031        2.76402788
 C           -0.32700751        2.01794053        2.04523654
 C           -2.11333226       -1.09609549        2.49354944
 C           -1.95799560        0.22894784        2.09887217
 C           -1.00214267       -2.96145922        1.67600524
 C           -2.15893913       -2.11616942        1.46934684
 C            1.26154068       -2.75093663        0.88229504
 C           -0.08060692       -3.06839023        0.63752325
 C            2.63036155       -0.87202395        0.27603172
 C            1.97240601       -2.05151235       -0.08622843
 C            3.02898733        1.44811904       -0.20074342
 C            2.77630116        0.16231771       -0.65777687
 C            1.41758334        3.07785423        0.13458521
 C            2.36004549        2.56460920       -0.83948389
 C           -0.79875360        2.38775805        0.77694302
 C            0.06107092        2.99956209       -0.14736891
 C           -2.38137045        0.59205979        0.82373857
 C           -1.99486784        1.82993767        0.32529349
 C           -2.43706725       -1.72485912        0.17212279
 C           -2.80803161       -0.40255823       -0.06438407
 C           -0.56268982       -2.96035078       -0.67125279
 C           -1.84736104       -2.43694351       -0.86490061
 C            1.66128185       -2.29142729       -1.41405899
 C            0.36834426       -2.87736933       -1.70393461
 C            2.33977176       -0.01043697       -1.97679643
 C            1.90995285       -1.26012411       -2.39979839
 C            1.92275755        2.41080156       -2.14025885
 C            2.04646210        1.10370113       -2.76323182
 C           -0.33772188        3.12171558       -1.47944091
 C            0.60660847        2.91627351       -2.48914041
 C           -2.53395506        2.25920202       -0.87969627
 C           -1.68979535        3.01819530       -1.78070860
 C           -3.20662565       -0.04769420       -1.35419824
 C           -3.27839809        1.30642166       -1.68339132
 C           -2.31373160       -2.19091243       -2.15097038
 C           -3.15337590       -1.02196810       -2.35675717
 C           -0.04429026       -2.41601363       -3.01625930
 C            0.87606649       -1.36154388       -3.42128242
 C           -1.39624621       -2.26938479       -3.27550609
 C            1.01198030        1.01390205       -3.78620990
 C            0.22169480        2.23711544       -3.71406085
 C            0.38525044       -0.20662928       -4.03146237
 C           -2.10254970        2.71235878       -3.14219791
 C           -3.18020647        1.74041591       -3.06796007
 C           -1.11486868        2.21257437       -4.08189232
 C           -3.02054950       -0.64611322       -3.75339803
 C           -1.81171296       -1.27980896       -4.25275373
 C           -0.88342405       -0.22305636       -4.61105618
 C           -2.96036888        0.75633598       -4.10703203
 C           -1.65084670        1.00924864       -4.69038669
