   70
C70 / DATE: 7/ 1/2024 / Origin: Program Fullerene / C70 from database
 C            1.38189700        0.03392840        4.74816062
 C            0.64336111       -1.17981165        4.46790000
 C            1.31840026       -1.89324916        3.39529244
 C            2.59388964       -0.00604413        3.95868746
 C            2.56532931       -1.20106657        3.12966477
 C            2.70469377        1.27186165        3.28849703
 C            0.58353460        1.14722030        4.25784470
 C            1.36117716        1.83159597        3.24796797
 C           -0.73023271       -0.79036334        4.24920096
 C           -0.71049578        0.62031899        3.88833674
 C           -1.50038313       -1.62777331        3.46721659
 C            0.54840598       -2.36544712        2.33197656
 C           -0.81554696       -2.53570990        2.55265122
 C            1.01852886       -2.21380235        1.02132244
 C            3.01144856       -1.08967009        1.81988024
 C            2.33089216       -1.77071231        0.80886541
 C            3.44593416        1.30363873        2.12317109
 C            3.76724482        0.03505998        1.48707373
 C            2.98919611        2.15878448        1.05228351
 C            0.78351559        2.10971074        2.00732309
 C            1.62567950        2.43903848        0.94502702
 C           -1.28699763        1.00267098        2.67760074
 C           -0.54418830        1.74330414        1.74528295
 C           -2.55773249       -1.02881638        2.68869358
 C           -2.39551036        0.28098623        2.23589807
 C           -1.70565973       -2.75029572        1.42642436
 C           -2.93838382       -2.04532552        1.73517955
 C            0.16288213       -2.44641699       -0.07338643
 C           -1.20507963       -2.67981061        0.13145476
 C            0.66681539       -2.41675297       -1.37968671
 C            2.84243245       -1.72610204       -0.48214686
 C            1.98129175       -2.03401018       -1.60353092
 C            4.04878944        0.32387677        0.09002077
 C            3.71341202        1.72561542       -0.12605065
 C            3.70234424       -0.61842778       -0.86859947
 C            3.23480326        2.13045895       -1.35837392
 C            1.09097232        2.70469555       -0.31572162
 C            1.97559627        2.84783234       -1.38765001
 C           -1.07809936        1.95763115        0.47144980
 C           -0.27160551        2.47596338       -0.55548237
 C           -3.02960416        0.65099961        1.05214843
 C           -2.39375729        1.56731326        0.20678159
 C           -3.74529583       -1.65394884        0.68761576
 C           -3.97809512       -0.23304773        0.53076463
 C           -2.11128854       -2.50995383       -0.92094710
 C           -3.42474135       -2.13537786       -0.63972294
 C           -0.21195653       -2.33787590       -2.45359391
 C           -1.63972855       -2.39196351       -2.22169181
 C            0.03649916       -1.35461716       -3.49797275
 C            2.26600998       -1.08445008       -2.67024238
 C            3.30001876       -0.17646719       -2.19438999
 C            3.20155479        1.18267357       -2.46055462
 C            1.21586673       -0.61880441       -3.46408590
 C            1.48427885        2.75085597       -2.74095608
 C            2.18485462        1.64692628       -3.38361458
 C            1.17932944        0.71478083       -3.86407292
 C           -0.78912562        2.63111709       -1.85325079
 C            0.07250959        2.54572180       -2.93889007
 C           -0.08818056        1.42666351       -3.85025686
 C           -2.97172571        1.91424740       -1.00939101
 C           -2.10843333        2.28598440       -2.10644439
 C           -4.48013286       -0.05383846       -0.81562131
 C           -4.12767046       -1.25649591       -1.56027559
 C           -4.02343558        1.08681465       -1.57175684
 C           -2.27718195       -1.46175757       -3.14596584
 C           -1.22374529       -0.68298715       -3.78386280
 C           -1.27959427        0.71302740       -3.78846281
 C           -2.36624639        1.35491851       -3.19681457
 C           -3.46748101       -0.84491847       -2.78455633
 C           -3.55605397        0.59987525       -2.85963548
