   70
C70 / DATE: 7/ 1/2024 / Origin: Program Fullerene / C70 from database
 C            1.34850891       -0.10535965        4.37110142
 C            2.54846375       -0.36453927        3.61061178
 C            2.51707500       -1.75713509        3.19634934
 C            0.49666275       -1.28231836        4.28703867
 C            1.22376829       -2.30797350        3.56450289
 C           -0.79991608       -0.85374814        3.78355676
 C            0.54022115        1.03478612        4.00071600
 C           -0.83817809        0.58749114        3.90434092
 C            0.99887748        1.93565543        3.04138525
 C            2.80968768        0.44290136        2.43209275
 C            1.96850841        1.51432383        2.11706521
 C            2.93555456       -1.81439843        1.80491463
 C            3.22350580       -0.46133516        1.37212920
 C            2.27009195       -2.65919092        0.92620708
 C            0.54031116       -3.06864716        2.62869628
 C            1.21656175       -3.44345521        1.40161421
 C           -1.31362855       -1.44892890        2.63672401
 C           -0.81705658       -2.69007341        2.25375724
 C           -2.01001396       -0.66055946        1.71491295
 C           -1.68066713        1.31638449        3.07956138
 C           -2.38391740        0.64116063        2.07383790
 C            0.09656063        2.92510790        2.66772041
 C           -1.31387886        2.64118531        2.86491316
 C            0.21433277        3.54557193        1.36512163
 C            1.89393831        1.93027199        0.78075075
 C            0.99778043        2.93200693        0.40109649
 C            2.94662524       -0.10901473        0.05999620
 C            2.56975618        1.20205095       -0.20360425
 C            2.35225574       -2.40342146       -0.44280721
 C            2.65987367       -1.10409652       -0.88055797
 C            1.71662609       -3.29428976       -1.30144987
 C            0.17208729       -3.85493020        0.48277318
 C           -1.03797151       -3.16395306        0.90108428
 C            0.47125190       -3.89795482       -0.86627705
 C           -2.27158437       -1.14390912        0.41952773
 C           -1.70017245       -2.34972077       -0.01085970
 C           -3.03262171       -0.38396060       -0.47825633
 C           -3.23390857        1.35997322        1.23888678
 C           -3.46673694        0.88476508       -0.10875495
 C           -2.06381975        3.44881976        1.92945760
 C           -1.10861236        4.01745622        0.99004611
 C           -3.11090689        2.80706265        1.16642013
 C           -3.21128346        1.99182559       -1.02163080
 C           -1.59020488        3.74076034       -0.35142520
 C           -2.91086611        3.16274747       -0.22693489
 C            0.63447875        3.05290439       -0.93863837
 C           -0.71679087        3.17833772       -1.27456091
 C            2.51096987        1.61808797       -1.52624033
 C            1.53192038        2.62101127       -1.90272102
 C            2.49424611       -0.73751703       -2.22515501
 C            2.54630775        0.61176990       -2.57267155
 C            1.56349821       -2.95768251       -2.69946741
 C            1.93660219       -1.63258983       -3.13663097
 C           -0.53864888       -3.46303419       -1.80965398
 C           -1.55437206       -2.61240268       -1.37636010
 C            0.16263830       -3.15569120       -3.04339153
 C           -2.91962837       -0.63536201       -1.84228359
 C           -2.18338558       -1.79274048       -2.30377954
 C           -2.45119234        1.73509677       -2.15736320
 C           -1.23866841        2.41763220       -2.32752263
 C           -2.60342703        0.47579235       -2.72501319
 C            1.03068614        2.28610957       -3.22147191
 C            1.72131887        1.09003918       -3.67008674
 C           -0.39487307        2.07163823       -3.38071851
 C            0.89811128       -1.17304581       -4.04718516
 C           -0.26854990       -2.01342808       -3.82880811
 C           -1.49008186       -1.42302530       -3.53177993
 C           -1.66525854        0.00659709       -3.72860453
 C            0.73672907        0.19250386       -4.24487798
 C           -0.57557123        0.79960398       -4.06136590
