   70
C70 / DATE: 7/ 1/2024 / Origin: Program Fullerene / C70 from database
 C            1.39232273       -0.05099001        4.91762438
 C            0.59734556       -1.22659886        4.60081687
 C            1.43963489       -2.13712486        3.86859620
 C            2.62054014       -0.13004982        4.14610083
 C            2.69558883       -1.45279171        3.57920151
 C            2.64952588        1.00112824        3.24405912
 C            0.65718814        1.11541643        4.45920518
 C            1.47718963        1.82276954        3.50672644
 C           -0.62948705       -0.77662252        3.97691640
 C           -0.63865632        0.67349510        4.01632388
 C           -1.11114996       -1.39850780        2.81993578
 C            0.94701473       -2.67729830        2.61701162
 C           -0.32436875       -2.34117325        2.13866817
 C            2.93636690       -1.58110535        2.15457309
 C            2.05715874       -2.63298364        1.69018706
 C            3.05025919        0.83714323        1.91842365
 C            3.09492219       -0.44803164        1.34854778
 C            2.84486633        1.93047271        1.09002574
 C            0.86684587        2.44785618        2.42153288
 C            1.70089687        2.78892486        1.36445131
 C           -1.23194468        1.31799003        2.94631322
 C           -0.49906633        2.22738802        2.16525395
 C           -2.11040862       -0.72969166        2.11326311
 C           -2.27047525        0.64346673        2.33465628
 C           -2.60923750       -1.29737065        0.94293651
 C           -0.59429065       -2.61286561        0.78938605
 C           -1.78433185       -2.15626998        0.20633238
 C            1.76032143       -2.66950844        0.34540787
 C            0.46720585       -3.01458451       -0.02656426
 C            2.92896493       -0.61305961       -0.03737571
 C            2.49297683       -1.85484340       -0.50902607
 C            2.93628661        1.77417846       -0.34370822
 C            2.91268501        0.49784581       -0.89107560
 C            1.12855990        3.17091405        0.09191072
 C            2.09968844        2.80745645       -0.92457623
 C           -1.05820982        2.65608441        0.94586259
 C           -0.22228184        2.93851728       -0.13871017
 C           -3.06863960        1.38131864        1.48414412
 C           -2.41338531        2.41644590        0.70748743
 C           -3.73217078       -0.71808837        0.35717745
 C           -3.99390296        0.68056711        0.62435692
 C           -3.99558911       -0.93294621       -1.04601983
 C           -2.03496447       -2.39913284       -1.15618445
 C           -3.04996478       -1.71245165       -1.81071869
 C            0.24088455       -3.29334519       -1.36413959
 C           -1.02865682       -2.92832305       -1.95490895
 C            2.35102209       -2.06503496       -1.87321187
 C            1.28888799       -2.95515227       -2.31377859
 C            2.54964545        0.34991224       -2.23530454
 C            2.37294304       -0.92517785       -2.76724096
 C            1.66212858        2.64223689       -2.22356868
 C            2.08424400        1.45730110       -2.94708695
 C           -0.66240094        2.71878208       -1.45043040
 C            0.24807212        2.81392309       -2.49945163
 C           -2.88225599        2.28745230       -0.66167441
 C           -4.01412232        1.37763471       -0.64749278
 C           -4.10836166        0.37349578       -1.68120304
 C           -1.94336129        2.21033765       -1.68616738
 C           -2.71644236       -0.95395204       -3.00609929
 C           -3.14903553        0.40952201       -2.76325598
 C           -2.19875129        1.42207102       -2.82323278
 C           -0.76383435       -2.30990871       -3.24802317
 C            0.66584273       -2.37213114       -3.48695881
 C            1.37359369       -1.15121125       -3.80685115
 C           -1.47834732       -1.16796730       -3.61016577
 C            1.12409274        1.26386478       -4.01906509
 C           -0.02805486        2.10370998       -3.72862736
 C           -1.21177851        1.27551812       -3.78908598
 C            0.64788524       -0.07689731       -4.29616219
 C           -0.80566895       -0.07194919       -4.16626990
