   70
C70 / DATE: 7/ 1/2024 / Origin: Program Fullerene / C70 from database
 C            1.25557591       -0.08468782        4.41638873
 C            2.50381336       -0.34899028        3.74512472
 C            2.41647942       -1.67933383        3.15979197
 C            0.40451082       -1.25298003        4.23902671
 C            1.03176846       -2.09609690        3.24859523
 C           -0.93315650       -0.76944084        3.98033999
 C            0.47765853        1.06646875        4.00753752
 C           -0.90552487        0.67286863        4.17080158
 C            0.83865071        1.79225843        2.86986443
 C            2.92471469        0.54581577        2.68859442
 C            2.06177402        1.53986269        2.21940648
 C            3.03425118       -1.61121295        1.84587705
 C            3.61628039       -0.28610685        1.72593836
 C            2.35896181       -2.14589485        0.74922436
 C            0.35405019       -2.37647730        2.06879994
 C            1.09804647       -2.71505929        0.94167832
 C           -1.65717971       -1.28829731        2.90909519
 C           -1.00282039       -2.04747467        1.92747243
 C           -2.85066746       -0.65454746        2.58892892
 C           -1.88396867        1.43241257        3.55349387
 C           -3.02006491        0.73565375        2.97830100
 C           -0.12763594        2.60478903        2.26395456
 C           -1.47535632        2.45360023        2.60049759
 C            0.17668418        3.27987955        1.08841095
 C            2.32354585        2.10753988        0.96747251
 C            1.44544327        3.04022677        0.43349979
 C            3.82653981        0.21969496        0.45763041
 C            3.25972808        1.51530400        0.11931608
 C            2.74584382       -1.75077263       -0.53496050
 C            3.58625402       -0.64697983       -0.68040199
 C            2.06026308       -2.23822875       -1.65101264
 C            0.44297664       -3.28881229       -0.13335520
 C            0.98293920       -3.10302373       -1.46721468
 C           -1.66471084       -2.37728558        0.73481864
 C           -1.00125357       -3.16316949       -0.20937862
 C           -3.40660547       -0.80352043        1.26109584
 C           -2.84594679       -1.71594326        0.37668331
 C           -3.45373601        1.47753383        1.80794873
 C           -2.47433167        2.50376898        1.54148754
 C           -3.73818812        0.52432806        0.76314976
 C           -0.84314774        3.38434832        0.05657458
 C           -2.04847721        2.71106870        0.23424810
 C            1.22108125        3.06586121       -1.00588424
 C           -0.18025767        3.37124119       -1.23379223
 C            3.02233563        1.52149998       -1.31847349
 C            3.42375237        0.22079918       -1.82951768
 C            1.87680466        2.14029745       -1.81521619
 C            2.25356881       -1.63157035       -2.89297236
 C            2.79157527       -0.28359727       -2.94997971
 C            1.21419195       -1.71634080       -3.90458624
 C           -0.13670294       -3.08826354       -2.39747645
 C           -1.36286243       -3.07716233       -1.61506361
 C           -0.05096202       -2.33748343       -3.56361104
 C           -3.16685434       -1.55845640       -0.97031126
 C           -2.41519217       -2.25888070       -1.99345760
 C           -3.40251772        0.83306943       -0.54932439
 C           -2.57302682        1.93617935       -0.81378597
 C           -3.45250857       -0.21962293       -1.45794675
 C           -0.82775124        2.80890212       -2.31822214
 C           -2.10713918        2.14990841       -2.11269282
 C            1.23997556        1.62129610       -2.94893649
 C            1.80320999        0.53793840       -3.62215991
 C            0.94262258       -0.36413070       -4.36936141
 C           -0.06373769        2.01119838       -3.26004142
 C           -1.11160117       -1.39967166       -3.90014544
 C           -2.27002301       -1.36335947       -3.13248588
 C           -2.86531582       -0.08349147       -2.77655489
 C           -2.22287821        1.09839165       -3.11065432
 C           -0.49279494       -0.15595725       -4.33475573
 C           -0.98097386        1.05831892       -3.86733634
