   70
C70 / DATE: 7/ 1/2024 / Origin: Program Fullerene / C70 from database
 C            1.65792876       -0.05641358        4.62996187
 C            0.80181250       -1.20942646        4.44908275
 C            1.27371205       -1.95224232        3.29039296
 C            2.62900252       -0.05882777        3.55128344
 C            2.31227395       -1.15397573        2.66331144
 C            2.64642588        1.27158011        2.99196320
 C            0.82606294        1.12291013        4.45977361
 C            1.51218001        1.99519240        3.54586432
 C           -0.56733095       -0.72960235        4.42886024
 C           -0.49872254        0.68166895        4.08851378
 C           -1.48685026       -1.50657019        3.75707864
 C            0.31283926       -2.56361595        2.48784531
 C           -0.97887527       -2.63872059        3.00595806
 C            0.48764338       -2.57543115        1.09437620
 C            2.21853985       -0.89717755        1.30400837
 C            1.46409518       -1.75875618        0.51177549
 C            2.87614394        1.42819077        1.62813437
 C            2.64137310        0.33397882        0.77880428
 C            2.63532591        2.70596909        1.13490102
 C            0.76515531        2.73963901        2.64877982
 C            1.53045234        3.43871201        1.73276098
 C           -1.04287089        1.12594307        2.87640590
 C           -0.46951508        2.21763474        2.21130650
 C           -2.39851659       -0.84593082        2.84670432
 C           -1.97287722        0.31887455        2.21174352
 C           -2.06048761       -3.04169717        2.14347951
 C           -2.98193326       -1.91075009        2.06623093
 C           -0.47197013       -3.19176483        0.27851901
 C           -1.75548080       -3.41429944        0.78313333
 C           -0.32708768       -3.15700856       -1.11277643
 C            1.54482809       -1.64453679       -0.87089882
 C            0.75714472       -2.47203900       -1.67659556
 C            2.54355847        0.53055106       -0.60247134
 C            2.24401143       -0.56054117       -1.41575482
 C            2.57170885        2.92222787       -0.29295534
 C            2.47462118        1.82469779       -1.14054182
 C            0.85780283        4.16403314        0.68745107
 C            1.68334678        4.05284517       -0.49929193
 C           -0.95999156        2.57065340        0.94544225
 C           -0.46848419        3.72025983        0.32970273
 C           -2.19653677        0.49709127        0.83541456
 C           -1.69050314        1.63335034        0.20015800
 C           -3.24086767       -1.68748487        0.66382318
 C           -2.88110673       -2.93131292        0.01491171
 C           -2.83363141       -0.49492477        0.06814527
 C           -1.47575507       -3.37669995       -1.88118507
 C           -2.73878412       -2.91501312       -1.35234119
 C           -1.50143312       -2.98556261       -3.27374771
 C            0.90750536       -2.43407201       -3.06348695
 C           -0.25746902       -2.61866484       -3.90548334
 C            2.28360690       -0.37451356       -2.78879483
 C            1.66421427       -1.35316203       -3.66005539
 C            1.95796715        2.01409789       -2.42846310
 C            1.94306505        0.93601014       -3.30359821
 C            0.78288947        4.01880203       -1.62822647
 C           -0.56999280        3.86062828       -1.10626162
 C            0.97280112        2.98250556       -2.62017670
 C           -1.75817283        1.72048929       -1.19829420
 C           -1.20168641        2.80283687       -1.86423121
 C           -0.35051391        2.53449223       -3.00565260
 C           -2.71518262       -0.47579563       -1.32654076
 C           -2.96186061       -1.65563824       -2.03038947
 C           -2.39539976       -1.83344313       -3.35173788
 C           -2.03203980        0.57509939       -1.94011226
 C           -0.48981924       -1.35496282       -4.57869904
 C            0.76246426       -0.63126777       -4.54951679
 C            0.74450555        0.74457157       -4.09695156
 C           -0.44420928        1.29534987       -3.62061636
 C           -1.64395171       -0.74982921       -3.93888847
 C           -1.46709830        0.43078857       -3.22126471
