   70
C70 / DATE: 7/ 1/2024 / Origin: Program Fullerene / C70 from database
 C            1.61775645       -0.27514275        4.94710173
 C            0.75855068       -1.44594908        4.91399506
 C            1.27294206       -2.34141702        3.89611760
 C            2.62687616       -0.43105432        3.91566924
 C            2.44431951       -1.73318605        3.29814685
 C            2.58456434        0.74386606        3.05623631
 C            0.81116128        0.87213724        4.58431674
 C            1.48794004        1.58072787        3.50522490
 C           -0.56564220       -1.02164793        4.48790118
 C           -0.54825528        0.41565511        4.34282145
 C            0.17478229       -2.68520938        3.01833403
 C           -0.94570284       -1.81407922        3.33502243
 C            0.45002390       -2.90007553        1.67954672
 C            2.58605436       -1.81544458        1.91862336
 C            1.74360833       -2.66689834        1.19836180
 C            2.76454116        0.55581195        1.69080301
 C            3.12251352       -0.71805326        1.25510088
 C            2.14957965        1.43025760        0.78538433
 C            0.68994101        2.19741262        2.54937517
 C            1.14965110        2.30083083        1.23086678
 C           -1.21087817        0.97816220        3.26346885
 C           -0.68309515        2.15550649        2.75934323
 C           -1.62112282       -1.19223678        2.28058826
 C           -1.93681491        0.16552470        2.38115017
 C           -0.60506246       -2.78097228        0.79284154
 C           -1.55176155       -1.77590300        1.01486149
 C           -0.40578071       -3.26761168       -0.48318063
 C            1.98409639       -2.82232370       -0.17287644
 C            0.95708732       -3.31955630       -0.98118507
 C            3.47026780       -0.88075818       -0.07193565
 C            3.02122075       -2.08455669       -0.74616533
 C            2.31743579        1.20633936       -0.58294427
 C            3.21820090        0.22093481       -0.97731678
 C            1.35876497        1.68538574       -1.48333789
 C            0.33550562        2.96108757        0.30229495
 C            0.46725307        2.67436919       -1.06559602
 C           -1.48510103        2.88131502        1.91075148
 C           -0.84872357        3.52261765        0.78517431
 C           -2.59015333        0.80014045        1.31769969
 C           -2.63272495        2.19326964        1.36154384
 C           -2.16586761       -1.14523874       -0.07192452
 C           -2.68930344        0.14969624        0.07504964
 C           -1.26228916       -2.81619229       -1.55462902
 C           -2.14988681       -1.76947555       -1.32401909
 C            0.91571922       -3.02355516       -2.40797797
 C           -0.47870176       -2.84001193       -2.78032792
 C            3.01193031       -1.78593080       -2.16703586
 C            3.13430487       -0.34065394       -2.30681538
 C            1.88877640       -2.21321149       -2.97685955
 C            1.23201200        1.13276500       -2.77117530
 C            2.07481574        0.10497375       -3.17977639
 C            1.48896467       -1.07514316       -3.78830359
 C            0.06957119        1.35459700       -3.51185799
 C           -0.43769888        3.19814867       -1.99130385
 C           -0.75272888        2.42534646       -3.17801106
 C           -1.92746062        3.85454941       -0.11913682
 C           -3.02398137        2.94198786        0.19093699
 C           -1.68339195        3.77982873       -1.53720279
 C           -3.21274652        0.83099591       -1.04097634
 C           -2.20248177        2.24652988       -3.21776442
 C           -3.33466248        2.21977156       -1.01582537
 C           -2.75486258        2.98309918       -2.10407037
 C           -2.72785712       -1.14353623       -2.41918942
 C           -3.19614639        0.21940136       -2.29298612
 C           -2.69674449        0.97203639       -3.44148892
 C           -0.80769266       -1.95683640       -3.79885048
 C            0.18508679       -0.99122041       -4.25589973
 C           -0.45920127        0.31142526       -4.27594678
 C           -2.08382929       -1.26675003       -3.71716548
 C           -1.88746559        0.07332744       -4.23359541
