   70
C70 / DATE: 7/ 1/2024 / Origin: Program Fullerene / C70 from database
 C            1.16208715        0.22211062        4.84304674
 C            2.48346562        0.03323532        4.28454774
 C            2.56199169       -1.33880994        3.81777288
 C            0.36634416       -0.95167766        4.50058183
 C            1.19976837       -1.83674676        3.71942515
 C           -0.87758474       -0.48968438        3.92634207
 C            0.40949460        1.39065497        4.43912079
 C           -0.93331798        0.94167623        4.13053711
 C            0.86890811        2.17205938        3.30036678
 C            2.90879813        0.87666420        3.18127113
 C            2.01459131        1.78778135        2.60816670
 C            3.38912955       -1.34609064        2.62248714
 C            3.72428981        0.03918146        2.31832452
 C            3.03040355       -2.19840493        1.58726903
 C            0.74652295       -2.29786829        2.48614100
 C            1.69454897       -2.77612362        1.58979337
 C           -1.29423840       -0.98419663        2.69367857
 C           -0.52498427       -1.93479909        2.01321864
 C           -2.22559541       -0.24091769        1.97083530
 C           -1.41325344        1.75092789        3.03311463
 C           -0.31044222        2.55848610        2.54656748
 C           -2.21200206        1.15505643        2.07646103
 C           -0.20617317        2.75417180        1.16941776
 C            2.13008495        2.10482443        1.25284371
 C            1.05348659        2.68761381        0.57044626
 C            3.90312730        0.42792825        0.99861948
 C            3.22341620        1.62160450        0.53462897
 C            3.34508021       -1.83447582        0.21528590
 C            3.80473501       -0.55852895       -0.06856177
 C            1.31897044       -3.01505320        0.21616601
 C            2.33166302       -2.42808581       -0.63693609
 C           -0.93114215       -2.32729585        0.72989896
 C           -0.00209029       -2.86902924       -0.16755359
 C           -2.81089086       -0.81274023        0.84001815
 C           -2.17960104       -1.91011608        0.24532616
 C           -3.66941472       -0.01168139        0.08338489
 C           -2.43928504        1.88322091        0.92445050
 C           -1.35435144        2.58492369        0.37829398
 C           -3.45220064        1.42142645        0.10616380
 C           -1.28441497        2.82560310       -1.00319050
 C            1.16144429        2.94002730       -0.79373691
 C           -0.04298689        2.99208180       -1.60338940
 C            3.14914033        1.52733146       -0.90973833
 C            3.31273279        0.12537538       -1.25381804
 C            2.18526831        2.26382458       -1.57327772
 C            1.90267823       -1.77413648       -1.78754185
 C            2.36648154       -0.48268775       -2.07924564
 C           -0.26248648       -2.78721205       -1.53058378
 C            0.70761747       -2.20439465       -2.36239681
 C           -2.59429498       -2.35552126       -1.01293221
 C           -1.58979466       -2.86039203       -1.92810368
 C           -4.02366970       -0.38466745       -1.27319207
 C           -3.54326341       -1.57518427       -1.79208184
 C           -3.54365535        1.91730667       -1.24360733
 C           -2.36293748        2.51185220       -1.82628846
 C           -3.96883905        0.81792504       -2.09124407
 C           -2.11189192        1.84830806       -3.09884866
 C           -3.13913188        0.82810266       -3.28303294
 C            0.23064832        2.30828930       -2.85943246
 C            1.53492986        1.68151333       -2.73403362
 C            1.65795176        0.31673822       -2.98453851
 C           -0.79398517        1.61316584       -3.49626591
 C            0.34963720       -1.64877189       -3.58402981
 C            0.73806120       -0.27887191       -3.84119957
 C           -0.47229192        0.44957246       -4.19415183
 C           -1.96872102       -2.49108140       -3.27677291
 C           -3.12756350       -1.62131833       -3.18687976
 C           -2.81172483       -0.38082354       -3.88054843
 C           -0.98603952       -1.84061785       -4.11264898
 C           -1.50323838       -0.53255811       -4.48421066
