   70
C70 / DATE: 7/ 1/2024 / Origin: Program Fullerene / C70 from database
 C            1.60309711       -0.01064250        4.67042793
 C            0.80356489       -1.21657181        4.55142236
 C            1.29889832       -1.97702382        3.41764170
 C            2.61973660       -0.05670569        3.63848625
 C            2.52857390       -1.34169857        2.97274959
 C            2.48877224        1.13200251        2.81694355
 C            0.73698360        1.11702794        4.37981642
 C            1.25454838        1.79075514        3.20527995
 C           -0.58662539       -0.81882619        4.54929246
 C           -0.62521967        0.62630150        4.34073015
 C           -1.48236640       -1.60808777        3.84384768
 C            0.39055828       -2.44308954        2.46252382
 C           -0.97218926       -2.45253144        2.76595824
 C            0.80442329       -2.55095695        1.12897299
 C            2.82754487       -1.38048152        1.62122649
 C            2.14286185       -2.29603798        0.83052327
 C            2.77260787        1.00512019        1.46198109
 C            3.28758959       -0.20997080        1.01805295
 C            2.08503598        1.80363576        0.54673698
 C            0.36496352        2.16585926        2.20764563
 C            0.84605516        2.34990579        0.91018861
 C           -1.49746198        1.14505889        3.38587943
 C           -1.01137854        2.03997337        2.42215103
 C           -2.69766958       -0.98209895        3.36488127
 C           -2.67978436        0.44995707        3.13757410
 C           -1.93739838       -2.42211642        1.68176813
 C           -3.06009579       -1.61587540        2.11112713
 C           -0.14404008       -2.53910754        0.09530619
 C           -1.47947856       -2.27963204        0.37956465
 C            0.27461412       -2.53355442       -1.23546310
 C            2.59867222       -2.49427066       -0.46490448
 C            1.62774590       -2.70863366       -1.52079987
 C            3.73329897       -0.29091619       -0.29235237
 C            3.59095280       -1.56426819       -0.97284363
 C            2.45937772        1.74880184       -0.79901127
 C            3.33381971        0.75111182       -1.22443707
 C            1.70889829        2.42535802       -1.75119892
 C            0.01673129        2.93093485       -0.05054035
 C            0.44950464        3.03143631       -1.36583395
 C           -1.88308907        2.54389513        1.46208258
 C           -1.34510987        3.03901027        0.20416475
 C           -3.41573377        0.69525430        1.91181895
 C           -3.53608257       -0.57825984        1.21924706
 C           -3.11054379        1.82308059        1.16560593
 C           -2.25163807       -1.58781636       -0.55427669
 C           -3.18240883       -0.63132754       -0.12306868
 C           -0.59506809       -2.08825482       -2.23877660
 C           -1.86505942       -1.59893364       -1.89480570
 C           -0.10048558       -1.92921418       -3.53590456
 C            2.18613759       -2.15806934       -2.74701683
 C            3.28934589       -1.29977712       -2.36559198
 C            3.13490135        0.13501845       -2.52930122
 C            1.31616792       -1.69535532       -3.71712315
 C            1.54509524        1.84468244       -3.07661875
 C            2.11952890        0.60421427       -3.35859232
 C            1.43982274       -0.31392363       -4.16221017
 C           -0.50399751        2.82139538       -2.44641414
 C            0.20255709        2.16769949       -3.54109143
 C           -2.29017989        2.70086046       -0.84854070
 C           -3.23423086        1.75410553       -0.28120067
 C           -3.38163748        0.51290236       -0.89184688
 C           -1.82342391        2.47913568       -2.14178693
 C           -2.57105481       -0.78098994       -2.77732897
 C           -3.16537329        0.43115284       -2.25776349
 C           -2.49310655        1.53718700       -2.92124314
 C           -0.76496512       -1.03727880       -4.46472601
 C            0.16482029        0.04479705       -4.75890283
 C           -0.47209038        1.29025243       -4.37756696
 C           -2.02085322       -0.44650103       -4.07470424
 C           -1.86796805        1.00091566       -4.11783129
