   70
C70 / DATE: 7/ 1/2024 / Origin: Program Fullerene / C70 from database
 C            1.49610653        0.08247562        4.44737995
 C            0.70145460       -1.11026244        4.20954554
 C            1.46898962       -1.99094724        3.36192553
 C            2.65875113        0.01670409        3.57957279
 C            2.71689814       -1.31656788        3.02877954
 C            2.59547715        1.12414240        2.65258219
 C            0.70437990        1.22551295        4.03502540
 C            1.43176484        1.92337702        2.99878887
 C           -0.60209637       -0.69328238        3.74989777
 C           -0.62774251        0.75800791        3.71979857
 C           -1.19955465       -1.37058175        2.69420025
 C            0.82233403       -2.70702373        2.35609718
 C           -0.50112567       -2.38062045        2.00863916
 C            1.64127550       -3.31709253        1.40672188
 C            3.21248213       -1.49119334        1.74379987
 C            2.94680902       -2.72770754        1.16675299
 C            2.85930837        0.88059307        1.30550397
 C            3.36649139       -0.36557037        0.91270338
 C            2.31676071        1.74809225        0.34729206
 C            0.71093741        2.49079870        1.96101101
 C            1.36978159        2.69402767        0.75823378
 C           -1.30986503        1.36532177        2.67235164
 C           -0.68550110        2.38838913        1.94716834
 C           -2.27446765       -0.74824799        2.06372703
 C           -2.33672698        0.64958993        2.06563217
 C           -3.01374018       -1.48384494        1.14726989
 C           -1.04301292       -2.88850891        0.82094376
 C           -2.37472466       -2.62131425        0.51509287
 C            1.09456704       -3.69354097        0.11705409
 C           -0.18616958       -3.27710258       -0.20844913
 C            3.31121301       -2.97652501       -0.20971623
 C            2.14999741       -3.54822845       -0.87280816
 C            3.74805565       -0.53284943       -0.41670972
 C            3.77488870       -1.86200722       -1.00321080
 C            2.48364153        1.48354185       -1.01836010
 C            3.20912628        0.36747992       -1.41901535
 C            1.59105009        2.04732603       -1.93151030
 C            0.75244135        3.50735325       -0.17975817
 C            0.98503381        3.24825316       -1.58318076
 C           -1.38535643        3.00796750        0.90452471
 C           -0.66739488        3.76759336       -0.01956632
 C           -3.15193575        1.31825867        1.16290673
 C           -2.66683018        2.55630636        0.57775507
 C           -3.82793849       -0.80605973        0.15173390
 C           -3.85855235        0.57830535        0.13184901
 C           -2.78344988       -2.63775807       -0.87723764
 C           -3.67702317       -1.51520040       -1.10171795
 C           -0.44488263       -2.85771518       -1.51557748
 C           -1.75151071       -2.60145184       -1.89448256
 C            1.88061615       -2.75677727       -2.05925966
 C            2.97610117       -1.82527254       -2.21658562
 C            2.65668242       -0.44209081       -2.48818027
 C            0.58401088       -2.30193108       -2.26906534
 C            1.03352484        1.22574112       -2.92327574
 C            1.38729774       -0.11630119       -2.94411288
 C            0.36859224       -1.08114988       -2.91990368
 C           -0.13816428        1.58578688       -3.57357851
 C           -0.17182394        3.72770171       -2.31379716
 C           -1.21712639        4.01277958       -1.34250553
 C           -0.73598280        2.88485230       -3.34135172
 C           -3.13734700        2.60157202       -0.80137635
 C           -3.67220429        1.28630989       -1.12816213
 C           -2.41495250        3.30559236       -1.75275798
 C           -2.14008368        2.67494831       -3.02928878
 C           -3.20049919       -0.78838506       -2.26400718
 C           -2.01267716       -1.46655055       -2.76271128
 C           -0.94534786       -0.70311645       -3.23874337
 C           -1.20327950        0.60644425       -3.64640295
 C           -3.22533213        0.60242465       -2.26473670
 C           -2.42241985        1.25920843       -3.19115741
