   70
C70 / DATE: 7/ 1/2024 / Origin: Program Fullerene / C70 from database
 C            1.53459586       -0.15737486        4.94375454
 C            0.65912325       -1.31184068        4.94294493
 C            1.19670898       -2.26585020        3.99169956
 C            2.57214013       -0.38015543        3.94815788
 C            2.32053182       -1.65660115        3.31173506
 C            2.63158170        0.79941047        3.10687058
 C            0.75348057        0.97979162        4.49826989
 C            1.54361998        1.67393994        3.50741045
 C           -0.64003947       -0.88980290        4.43981890
 C           -0.55814067        0.51056122        4.09482665
 C            0.09402914       -2.71489288        3.17725302
 C           -1.02518599       -1.81759251        3.40176225
 C            0.34359544       -3.05866958        1.86181909
 C            2.35726700       -1.71969040        1.92145591
 C            1.53621914       -2.64068029        1.25579926
 C            2.86036569        0.64322318        1.73847918
 C            2.90364556       -0.65074973        1.20668499
 C            2.53085014        1.71398687        0.89496937
 C            0.87988838        2.32977609        2.48913048
 C            1.63512387        2.67505702        1.38455955
 C           -1.04279888        0.92743534        2.85697046
 C           -0.47640372        2.06150157        2.27621002
 C           -1.69190947       -1.34114007        2.27381316
 C           -1.75962209        0.03958244        2.04182832
 C           -0.76648099       -3.17698282        1.05100449
 C           -1.75775696       -2.19598031        1.17662811
 C           -0.56511685       -3.78583771       -0.16996231
 C            1.67373713       -2.80299822       -0.13294045
 C            0.69524170       -3.51461297       -0.83429643
 C            3.11709136       -0.80891917       -0.15376240
 C            2.48574295       -1.92043242       -0.84447254
 C            2.76586987        1.60068407       -0.48397818
 C            3.05242068        0.35169201       -1.02288670
 C            2.31568384        2.59233465       -1.35274992
 C            1.06402842        3.59498804        0.52663835
 C            1.58007386        3.71282083       -0.81376561
 C           -1.07708652        2.60223514        1.14062111
 C           -0.38423045        3.60253600        0.45543299
 C           -2.21824675        0.49862134        0.79978674
 C           -2.02988424        1.84164121        0.45986848
 C           -2.46895560       -1.78941642        0.05057521
 C           -2.64706539       -0.41769990       -0.17505180
 C           -1.62139913       -3.72764733       -1.15321337
 C           -2.62782593       -2.70236658       -0.98984712
 C            0.37399797       -3.12138535       -2.19781029
 C           -0.99649988       -3.51997651       -2.44678323
 C            2.05505158       -1.44724830       -2.15464864
 C            2.40018139       -0.04608607       -2.26178612
 C            0.85314145       -1.90358767       -2.67667308
 C            1.66865815        2.19533506       -2.59608501
 C            1.51941184        0.83713069       -2.87260612
 C            0.46097526        3.99241367       -1.69572501
 C           -0.75899611        3.95320168       -0.90143612
 C            0.57910625        3.12332853       -2.85434611
 C           -2.58597147        2.33493427       -0.71428582
 C           -1.89562160        3.38377991       -1.45227530
 C           -3.13831108        0.04195740       -1.40908641
 C           -3.14715885        1.40730883       -1.67775161
 C           -2.94438865       -2.22888080       -2.31561991
 C           -1.85060725       -2.62960976       -3.19350890
 C           -3.14369505       -0.81262717       -2.51047011
 C           -0.00379236       -1.00512480       -3.33382035
 C            0.31691339        0.35892220       -3.40548096
 C           -1.28173282       -1.41058465       -3.72817292
 C           -2.35963531       -0.44684876       -3.67865857
 C           -0.57891906        2.65554724       -3.45384281
 C           -1.85982673        2.98906381       -2.84864600
 C           -2.73244098        1.84340405       -3.00263185
 C           -0.64491701        1.26470331       -3.86467505
 C           -2.04943042        0.88704466       -3.85302588
