   70
C70 / DATE: 7/ 1/2024 / Origin: Program Fullerene / C70 from database
 C            1.05706655       -0.11445886        4.70698914
 C            2.31012593       -0.44732031        4.06671743
 C            2.15954680       -1.75792229        3.45388826
 C            0.18599896       -1.27174852        4.58295795
 C            0.77318497       -2.15306433        3.58895814
 C           -1.15574365       -0.78032287        4.36285194
 C            0.31822231        1.03877701        4.22562641
 C           -1.08341481        0.66559120        4.21082160
 C            0.81975321        1.78318671        3.15899514
 C            2.82481379        0.44840144        3.05048712
 C            2.16161948        1.63682979        2.77079929
 C            2.72590862       -1.68660693        2.12405464
 C            3.27862955       -0.35871461        1.93158669
 C            2.04283672       -2.25572258        1.06672252
 C            0.05029314       -2.47508425        2.43831660
 C            0.73978999       -2.73682881        1.24401550
 C           -1.89672361       -1.29224180        3.23033119
 C           -1.33512903       -2.26948932        2.41218662
 C           -1.88783978        1.02905172        3.05556158
 C           -2.56150095       -0.16780449        2.59557927
 C           -0.08568884        2.42884902        2.30861925
 C           -1.35563919        1.88738092        2.10657120
 C            0.38361990        3.37784820        1.41316434
 C            2.62321424        2.34870897        1.67083237
 C            1.80113910        3.40681809        1.12632547
 C            3.25695749        0.20590896        0.65177635
 C            3.17958618        1.59681109        0.55300448
 C            2.44900073       -1.90222444       -0.20645543
 C            2.85167562       -0.58111379       -0.43713998
 C            1.99050699       -2.67922971       -1.25431644
 C            0.04260581       -3.22054516        0.12984133
 C            0.70253090       -3.32943391       -1.09535633
 C           -2.03666577       -2.57702096        1.25510185
 C           -1.34510020       -3.18363299        0.13414056
 C           -2.88889312       -0.28583816        1.24839108
 C           -2.93765383       -1.56888466        0.71913642
 C           -1.90804164        1.89573113        0.82607151
 C           -2.64090905        0.78257314        0.38105471
 C           -0.32206111        3.57269187        0.15919829
 C           -1.51924036        2.89545828       -0.07223742
 C            1.96681793        3.39796574       -0.31635730
 C            2.69191270        2.20291305       -0.67499338
 C            0.66703752        3.59827387       -0.90782248
 C            2.53188705        0.03806334       -1.65261186
 C            2.17627371        1.38047632       -1.66609754
 C            2.07570529       -2.15983316       -2.60067915
 C            2.25369998       -0.73374769       -2.76944683
 C           -0.04106629       -3.13849610       -2.33409206
 C            0.86767820       -2.54958921       -3.30268644
 C           -2.05609252       -2.79717953       -1.07584991
 C           -2.99291824       -1.74289614       -0.71595059
 C           -1.36576562       -2.70572275       -2.28291967
 C           -2.94810123        0.64738783       -0.97658286
 C           -3.09170675       -0.63110197       -1.53915036
 C           -1.97309086        2.84510869       -1.38726991
 C           -2.85528357        1.77081239       -1.79156773
 C            0.34912740        2.93884567       -2.08598083
 C            1.10224953        1.81066290       -2.46494434
 C           -0.98765057        2.99928673       -2.44488506
 C            1.24733838       -0.26676964       -3.70509626
 C            0.41849964       -1.41058058       -4.07358417
 C            0.65257035        0.98272047       -3.51028054
 C           -1.85497274       -1.84180437       -3.26853267
 C           -2.83589054       -0.83670377       -2.89175065
 C           -0.94462087       -1.22470375       -4.22793884
 C           -2.69759309        1.61977720       -3.22686053
 C           -1.44252910        2.25736000       -3.59282252
 C           -0.57228820        1.23711717       -4.13082129
 C           -2.68550592        0.28873079       -3.78737034
 C           -1.42410359        0.11826268       -4.49022452
