   70
C70 / DATE: 7/ 1/2024 / Origin: Program Fullerene / C70 from database
 C            0.98141918        0.12882307        5.92486188
 C            0.08403085       -1.01262410        5.98457817
 C            0.81745876       -2.18414420        5.53581342
 C            2.23868226       -0.32181532        5.35628742
 C            2.13745083       -1.74995757        5.11607159
 C            2.55327316        0.54604148        4.23394780
 C            0.41105598        1.09696032        5.00307741
 C            1.42896436        1.44875007        4.02905910
 C           -0.99071984       -0.77701412        5.03680637
 C           -0.84173590        0.56633563        4.50303943
 C            0.14109450       -2.71147384        4.36247381
 C           -1.01517266       -1.88038544        4.09147677
 C            2.35580915       -2.23964563        3.76538333
 C            1.12330899       -2.86315109        3.30376783
 C            3.16171894       -0.00465801        3.11522937
 C            3.05971116       -1.44375518        2.87316701
 C            2.97467386        0.65458302        1.83555241
 C            1.01993265        1.72637169        2.72313177
 C            1.93630501        1.57121357        1.67976981
 C           -1.12911769        0.75806580        3.15723422
 C           -0.34259210        1.64546043        2.42419392
 C           -1.29499000       -1.58213878        2.76357566
 C           -1.71413008       -0.29200804        2.45845586
 C            0.71029215       -2.64160331        1.98839934
 C           -0.62094949       -2.28155906        1.76361273
 C            2.81357320       -1.61825970        1.45324116
 C            3.14339729       -0.36056369        0.81831804
 C            1.66313888       -2.28260234        1.03152098
 C            2.59312505       -0.11274188       -0.42324890
 C            1.51395595        1.85614823        0.37935654
 C            2.11627746        1.16687383       -0.67524144
 C           -0.74993876        1.91920779        1.12102740
 C            0.21188820        2.31701531        0.19657471
 C           -2.08933180       -0.04459742        1.14584125
 C           -1.86019939        1.22995376        0.64024745
 C           -1.03180595       -2.05743946        0.45207776
 C           -2.02558251       -1.10373279        0.24765438
 C            1.23583197       -2.06791184       -0.28073902
 C            1.95123331       -1.16240401       -1.06708577
 C           -0.11263320       -2.26072294       -0.57347753
 C            1.50769188       -0.92220605       -2.36133631
 C            1.67399032        1.42441216       -1.96655624
 C            1.69842954        0.36209000       -2.86898276
 C           -0.21117427        2.59594605       -1.10301875
 C            0.70507188        2.40793295       -2.13689172
 C           -2.27225275        1.48327381       -0.66179033
 C           -1.56790436        2.43987518       -1.38683995
 C           -2.43834916       -0.86021398       -1.05602821
 C           -2.86160205        0.43172296       -1.36002489
 C           -0.53988527       -2.04043827       -1.88295279
 C            0.41712233       -1.65382541       -2.82017717
 C           -1.85542479       -1.61570950       -2.06907587
 C            0.03010961       -1.49625219       -4.14851094
 C            1.36536424        0.60873948       -4.19468869
 C            0.62271311       -0.41114267       -4.91399057
 C            0.33095137        2.74618797       -3.43482175
 C            0.78654019        1.89898248       -4.52536411
 C           -2.03273762        2.78150130       -2.65349258
 C           -1.05906458        3.07963058       -3.68770860
 C           -3.37582332        0.68127344       -2.62669683
 C           -3.07211354        1.95792250       -3.24941392
 C           -2.33341980       -1.45908627       -3.36682846
 C           -1.38632726       -1.53496667       -4.46396941
 C           -3.23590738       -0.35196006       -3.63796618
 C           -0.43218978        0.24497174       -5.66916299
 C           -0.33070204        1.67590303       -5.42844599
 C           -1.47376133        2.40910482       -4.91071277
 C           -2.71993281        1.71242815       -4.63840254
 C           -1.67671374       -0.45257627       -5.39208929
 C           -2.82140240        0.28158453       -4.87909284
