   70
C70 / DATE: 7/ 1/2024 / Origin: Program Fullerene / C70 from database
 C            1.45031504       -0.23996515        5.07469034
 C            0.58679001       -1.40109860        4.99256593
 C            1.18607444       -2.32739714        4.04976596
 C            2.55436273       -0.43950420        4.14905190
 C            2.34290457       -1.68712356        3.45420890
 C            2.67155918        0.75806221        3.35540784
 C            0.69411733        0.90527192        4.59936382
 C            1.54344948        1.62096548        3.68018995
 C           -0.67868334       -0.97276223        4.42178352
 C           -0.57673173        0.43679175        4.09628736
 C            0.13563379       -2.77149150        3.15539565
 C           -1.00473302       -1.89403046        3.35183478
 C            0.47526057       -3.06681066        1.84204878
 C            2.44845679       -1.71714408        2.06638066
 C            1.75337181       -2.71665047        1.39136036
 C            3.02978042        0.65398024        2.01385541
 C            2.85469025       -0.57538533        1.35127265
 C            2.91481331        1.82823099        1.28011137
 C            0.95809924        2.30423878        2.62361668
 C            1.84456857        2.73821926        1.65455593
 C           -0.97399190        0.85077633        2.82735039
 C           -0.33657301        1.93909196        2.21449157
 C           -1.62454430       -1.39786626        2.21123897
 C           -1.73775066       -0.01391222        2.04435933
 C           -0.56032265       -3.10262948        0.91215338
 C           -1.61735501       -2.20034654        1.06949353
 C           -0.27957685       -3.62151760       -0.34176573
 C            2.07340736       -2.94077689        0.06056980
 C            1.10225315       -3.61780807       -0.77773646
 C            2.83488299       -0.61550927       -0.05612456
 C            2.61756929       -1.83147080       -0.70182785
 C            2.93964355        1.77780183       -0.16448400
 C            2.69584042        0.56562903       -0.79070607
 C            1.32608480        3.32495259        0.44649775
 C            2.24147326        2.96341328       -0.62231323
 C           -0.81742606        2.38536240        0.97162719
 C           -0.04007238        3.26455499        0.20727698
 C           -2.27140445        0.45749513        0.85464307
 C           -1.89033574        1.71093281        0.37186540
 C           -2.34100193       -1.76535834       -0.04330607
 C           -2.84277874       -0.45939370       -0.01649491
 C           -1.09614204       -3.23369828       -1.47062584
 C           -2.22361770       -2.45045060       -1.26149347
 C            1.15161089       -3.01130862       -2.09531335
 C            1.97143752       -1.82871378       -2.00575683
 C           -0.20624740       -2.85687876       -2.55724850
 C            2.03127391        0.55219944       -2.02402332
 C            1.47606878       -0.62946961       -2.50074326
 C            1.76169129        2.99217990       -1.91889709
 C            1.72888520        1.74499847       -2.66777110
 C           -0.47774212        3.65215839       -1.05375428
 C            0.48989909        3.65140699       -2.13988256
 C           -2.41947354        2.16360862       -0.84366552
 C           -1.72061578        3.12132108       -1.57810942
 C           -3.60084721        0.02125493       -1.06992713
 C           -3.38349808        1.39271118       -1.49866335
 C           -2.80398646       -1.90108899       -2.40074571
 C           -3.73277318       -0.80495072       -2.24765061
 C           -0.55095243       -1.73443511       -3.29825700
 C            0.27738199       -0.59530520       -3.23975646
 C           -1.91448371       -1.56560934       -3.50302701
 C            0.58130785        1.78656720       -3.55676188
 C           -0.13023160        3.02418117       -3.28691558
 C           -1.54992964        2.94616124       -3.01884303
 C           -0.16814680        0.63010806       -3.77247750
 C           -3.41113674        1.40538413       -2.95079390
 C           -3.60480051        0.04555277       -3.41586702
 C           -2.39337895       -0.35116041       -4.11496915
 C           -2.25694731        1.93468031       -3.64269132
 C           -1.50672593        0.78877714       -4.14592509
