   70
C70 / DATE: 7/ 1/2024 / Origin: Program Fullerene / C70 from database
 C            1.50828350        0.04716621        4.66799715
 C            0.69709842       -1.14972763        4.54428290
 C            1.22346079       -1.94418653        3.44812936
 C            2.55374171       -0.02518409        3.66522253
 C            2.44833499       -1.30629569        2.99554247
 C            2.47931831        1.16954998        2.84527828
 C            0.66409306        1.18166675        4.33924068
 C            1.26607825        1.87266848        3.22141412
 C           -0.68624757       -0.73215202        4.47833555
 C           -0.69186675        0.69949334        4.19250481
 C           -1.56898775       -1.54116082        3.78230977
 C            0.33493418       -2.46051202        2.50100600
 C           -1.02985398       -2.47133677        2.79280775
 C            0.76462745       -2.61796195        1.17625327
 C            2.74304000       -1.34873622        1.64397802
 C            2.08296377       -2.28700951        0.85917117
 C            2.77651512        1.04522962        1.48845022
 C            3.22787091       -0.19188599        1.03154909
 C            2.16372607        1.91412632        0.57640921
 C            0.45540391        2.33948504        2.20145954
 C            1.07074122        2.67477075        1.00369250
 C           -1.47312887        1.18000348        3.14011784
 C           -0.91765405        2.05292846        2.19400194
 C           -2.73241769       -0.91201128        3.19243044
 C           -2.63614018        0.48701803        2.81848036
 C           -1.98843282       -2.56770700        1.70917276
 C           -3.08242018       -1.66272988        2.00366659
 C           -0.17080344       -2.81022261        0.14726646
 C           -1.53164805       -2.62481398        0.40134912
 C            0.26073158       -2.94287794       -1.18059806
 C            2.55544138       -2.50304650       -0.42595750
 C            1.61338782       -2.81661100       -1.48172996
 C            3.67703654       -0.28631494       -0.27668766
 C            3.52256556       -1.55927638       -0.95767421
 C            2.41622807        1.75498353       -0.79347419
 C            3.30099162        0.75998206       -1.21078063
 C            1.62061095        2.41143102       -1.73785479
 C            0.33522164        3.40733378        0.08871775
 C            0.69380788        3.35567431       -1.31254789
 C           -1.66720652        2.41810447        1.06989014
 C           -1.11127270        3.33974561        0.18406179
 C           -3.20710175        0.62344021        1.49036174
 C           -3.47135048       -0.71116856        0.98050301
 C           -2.68199587        1.56795083        0.61745477
 C           -2.34375815       -2.10880091       -0.60408299
 C           -3.12476033       -0.98099717       -0.33572837
 C           -0.65812331       -2.79624676       -2.22111057
 C           -2.02351770       -2.40798198       -1.91839076
 C           -0.25201662       -2.08648727       -3.42573253
 C            2.00701400       -2.07382870       -2.67179686
 C            3.18223180       -1.29063653       -2.34160084
 C            3.13266989        0.14616623       -2.51868939
 C            1.01520575       -1.51393459       -3.47097209
 C            1.53418927        1.91709475       -3.04018781
 C            2.18825939        0.66878710       -3.38496361
 C            1.17569941       -0.21064070       -3.95807685
 C            0.26009106        1.94833660       -3.74338144
 C            0.01361639        0.61416523       -4.26972556
 C           -0.52455547        3.55445047       -2.07879371
 C           -1.64640602        3.44535526       -1.16011386
 C           -0.78948496        2.68755365       -3.21265701
 C           -2.86037637        1.37124051       -0.75588203
 C           -3.10580133        0.08135353       -1.23660668
 C           -2.50702465        2.38582845       -1.63948831
 C           -2.07855081        2.05009197       -2.98685013
 C           -2.48216314       -1.51692967       -2.96892908
 C           -1.39911219       -1.34874860       -3.92230035
 C           -1.26067122        0.06798247       -4.19618160
 C           -2.95442101       -0.19928792       -2.59143252
 C           -2.30595976        0.76629160       -3.46152927
