   70
C70 / DATE: 7/ 1/2024 / Origin: Program Fullerene / C70 from database
 C            1.54393524        0.16912574        4.97905286
 C            0.73935087       -1.03553110        4.98882412
 C            1.50141389       -2.06684056        4.31216346
 C            2.64838525       -0.04288654        4.05306868
 C            2.63003523       -1.42744956        3.65043226
 C            2.55581877        0.97222779        3.02465749
 C            0.72324303        1.23781398        4.44036950
 C            1.49420847        1.88092978        3.40700487
 C           -0.58397889       -0.69744104        4.48349787
 C           -0.56292939        0.69260491        4.05972274
 C           -1.25819082       -1.61677197        3.69767058
 C            0.82398602       -2.88212920        3.32521951
 C           -0.56010790       -2.80808441        3.22598148
 C            2.54303347       -1.73675431        2.23511117
 C            1.60801417       -2.83587047        2.09935427
 C            2.65050681        0.62855627        1.66994203
 C            2.51339337       -0.71475303        1.28441095
 C            2.30899860        1.62728534        0.74761800
 C            0.81542944        2.46994552        2.36287803
 C            1.56430981        2.70646267        1.22915801
 C           -1.08085917        1.05248467        2.81075376
 C           -0.53302285        2.15372058        2.15679363
 C           -2.06983032       -1.12819272        2.59546718
 C           -1.82124075        0.13068742        2.06572634
 C           -1.16628175       -3.17664142        1.96591029
 C           -2.24467499       -2.23925879        1.69435486
 C            0.95164363       -3.00227276        0.88557608
 C           -0.34188269       -3.52692945        0.90365743
 C            2.01982309       -1.01399031        0.01295743
 C            1.34810474       -2.22156532       -0.20780618
 C            2.21544158        1.30355433       -0.60907370
 C            2.01857948       -0.03187338       -0.97275310
 C            1.93563148        2.32105330       -1.52660026
 C            1.00206693        3.58484765        0.32883374
 C            1.41568403        3.52399767       -1.04993493
 C           -1.09959891        2.57214513        0.95280237
 C           -0.44614999        3.62428430        0.32006625
 C           -2.04763178        0.36083136        0.70073772
 C           -1.77402816        1.62448007        0.16406369
 C           -2.54464860       -2.00279891        0.36173982
 C           -2.44685674       -0.69203372       -0.14340018
 C           -0.97435892       -3.72030810       -0.31115855
 C           -2.25654923       -3.06123154       -0.48748044
 C            0.78016168       -2.48155957       -1.45716882
 C           -0.23395956       -3.43902312       -1.51897364
 C            1.62518808       -0.36088483       -2.27085696
 C            0.94904384       -1.56402620       -2.50529064
 C            1.82331211        2.00859519       -2.87926001
 C            1.67024104        0.61645446       -3.26734583
 C            0.95095669        2.80219957       -3.73448697
 C            0.36042275        4.20200928       -1.78024846
 C           -0.85655977        4.02038226       -1.00352702
 C            0.07285378        3.78228561       -3.12926055
 C           -1.95693442        1.85058757       -1.21035231
 C           -1.69821512        3.11385933       -1.74415033
 C           -1.27326153        3.22181939       -3.12242758
 C           -2.53483701       -0.47606757       -1.53179528
 C           -2.17542674        0.76782113       -2.07204763
 C           -2.45905765       -2.89685513       -1.90136667
 C           -1.24232231       -3.36120880       -2.55342309
 C           -2.71428172       -1.56516019       -2.39194123
 C            0.21243488       -1.70778348       -3.68475039
 C           -1.00517995       -2.48947311       -3.67274185
 C           -2.10013050       -1.53183403       -3.69835559
 C            0.71675090        0.56604501       -4.36901207
 C            0.10228283        1.87868415       -4.45242239
 C           -1.24213454        2.02161942       -3.91817800
 C           -1.85704669        0.87219854       -3.44363810
 C           -0.13389543       -0.52236942       -4.43513744
 C           -1.53862118       -0.28374527       -4.13921229
