   70
C70 / DATE: 7/ 1/2024 / Origin: Program Fullerene / C70 from database
 C            1.33180031        0.11833665        5.19858940
 C            0.56381044       -1.02909513        4.75662139
 C            1.49218895       -1.92966845        4.11659241
 C            2.59603028        0.10138115        4.47593442
 C            2.71611272       -1.18683098        3.83987624
 C            2.63467612        1.28500415        3.64349976
 C            0.61485294        1.30895324        4.78656346
 C            1.56243212        2.15894942        4.09886235
 C           -0.57096623       -0.54820488        3.98335702
 C           -0.57620234        0.90139525        4.06025813
 C           -0.87963337       -1.15305005        2.76562999
 C            1.08793124       -2.53733152        2.87094713
 C           -0.19037892       -2.30542818        2.36562018
 C            2.93328570       -1.24002464        2.40381447
 C            2.19255027       -2.39029555        1.94786725
 C            2.88844520        1.17888866        2.26929411
 C            2.87343369       -0.07623337        1.63900333
 C            2.71987216        2.32566924        1.50346873
 C            1.05371981        3.06899993        3.19189171
 C            1.86847550        3.37585682        2.03346915
 C           -0.93572704        1.63177043        2.93093239
 C           -0.30347133        2.85532734        2.70078305
 C           -1.58279282       -0.41483252        1.80744216
 C           -1.56589287        0.98227347        1.86414001
 C           -2.01376369       -1.05645352        0.64254956
 C           -0.42872661       -2.79151753        1.08440868
 C           -1.56797332       -2.35830753        0.41150695
 C            1.86804247       -2.48431245        0.61018210
 C            0.69001259       -3.14956635        0.32864228
 C            2.54066553       -0.19017166        0.27703976
 C            2.22778692       -1.45088714       -0.25747139
 C            2.44228260        2.21035896        0.08323354
 C            2.33189215        0.95306625       -0.49813529
 C            0.97238223        3.79181946        0.97750727
 C           -0.37862655        3.45348808        1.38340077
 C            1.45796441        3.22170843       -0.26547291
 C           -1.90452489        1.71417519        0.72758974
 C           -1.19051852        2.87672235        0.42212016
 C           -2.57460108       -0.30749505       -0.40363598
 C           -2.60703058        1.09239076       -0.30621722
 C           -2.97537879       -0.95249896       -1.58847426
 C           -1.89605326       -3.00086501       -0.77423282
 C           -2.63099301       -2.28446183       -1.79574590
 C            0.50756564       -3.54246516       -0.98021338
 C           -0.84756581       -3.75063989       -1.43755188
 C            1.80426352       -1.55951517       -1.59267190
 C            1.19230964       -2.75565031       -1.98861472
 C            1.65388374        0.84092299       -1.71194401
 C            1.58457541       -0.39937670       -2.34123452
 C            0.51384338        2.89772581       -1.22990776
 C           -0.82724895        3.07830890       -0.90197088
 C            0.82334982        1.88744687       -2.13502372
 C           -2.82413794        1.85442805       -1.45177053
 C           -1.77214991        2.76393933       -1.85792970
 C           -3.40163744       -0.21292626       -2.69034377
 C           -3.32512225        1.22576367       -2.65219644
 C           -2.97046948       -0.61825550       -4.01888637
 C           -2.10914982       -2.69897008       -3.09525985
 C           -0.88218962       -3.43005463       -2.84922024
 C            0.38664781       -2.80760142       -3.19610114
 C           -2.13199414       -1.79389235       -4.14608537
 C            1.00834939       -0.47979993       -3.60939244
 C            0.37789180       -1.71559819       -4.04695591
 C           -0.86321935       -1.36985331       -4.72583097
 C           -0.04700797        1.68865999       -3.20648458
 C           -1.30865294        2.28562036       -3.14338864
 C           -2.46084418        1.64344964       -3.74822078
 C           -2.25709651        0.50220075       -4.61130733
 C            0.18699911        0.62421088       -4.07318941
 C           -0.89858407        0.07291873       -4.87155704
