   70
C70 / DATE: 7/ 1/2024 / Origin: Program Fullerene / C70 from database
 C            1.14324949        0.07758176        5.40385710
 C            0.44573101       -1.11903072        4.96700353
 C            1.39408524       -1.96744223        4.28453970
 C            2.47597927        0.04496528        4.82613602
 C            2.62858323       -1.21499436        4.12540059
 C            2.65966853        1.27496079        4.08715082
 C            0.44624319        1.22762252        4.84653932
 C            1.41515792        2.03225733        4.14734173
 C           -0.73122380       -0.70083613        4.23747060
 C           -0.69794316        0.74147455        4.10482218
 C           -1.14006593       -1.41589300        3.12179548
 C            1.02759532       -2.48660815        2.97922583
 C           -0.26662580       -2.32581408        2.50265549
 C            2.95389649       -1.21078526        2.70683054
 C            2.11372764       -2.20638576        2.06547693
 C            3.04795037        1.21360528        2.68964746
 C            3.19810007       -0.01412789        2.03303010
 C            1.10735084        2.46436947        2.79518437
 C            2.30753134        2.26608343        2.01635410
 C           -1.01280438        1.27918550        2.85343104
 C           -0.11129418        2.13749286        2.20180858
 C           -2.08514071       -0.79783799        2.31553231
 C           -1.93149340        0.57174969        2.07511819
 C           -2.66124783       -1.58304645        1.33445580
 C           -0.48943349       -2.62445550        1.15765922
 C           -1.80311833       -2.57276108        0.71649372
 C            1.81603445       -2.04406080        0.71595210
 C            0.54713823       -2.39638014        0.24070242
 C            3.09942599       -0.00998163        0.64136854
 C            2.56885486       -1.13019787       -0.01342570
 C            2.18258127        2.16966264        0.64264479
 C            2.98133309        1.22822256        0.01838306
 C           -0.21374862        2.29479726        0.81479180
 C            0.94901223        2.45682870        0.05219345
 C           -2.28602207        1.08192878        0.82809864
 C           -1.39349718        1.93469090        0.17784389
 C           -3.41809752       -0.94755053        0.27920254
 C           -3.26398943        0.42176526        0.08457033
 C           -2.08548816       -2.56294494       -0.70271917
 C           -3.33237348       -1.83952422       -0.86384999
 C            0.25572546       -2.17141597       -1.11314354
 C           -1.05225251       -2.32583697       -1.59892618
 C            2.39076229       -1.06746544       -1.39420585
 C            1.25908418       -1.67835448       -1.95277269
 C            3.03286756        1.26729364       -1.35820173
 C            2.98837610        0.00360518       -2.05376039
 C            0.87851618        2.40564324       -1.34801933
 C            2.05996159        2.10511261       -2.02749698
 C           -1.51898232        2.14571026       -1.19113286
 C           -0.36131850        2.21024570       -1.98167184
 C           -3.64797687        0.95935189       -1.13905447
 C           -2.76258050        1.92203361       -1.77020693
 C           -3.64342587       -1.33091854       -2.11073607
 C           -4.09963947        0.04537676       -2.17351380
 C           -1.37794807       -1.92047872       -2.89899310
 C           -2.68457189       -1.51000994       -3.18871718
 C            1.01291011       -1.57778604       -3.32155591
 C           -0.35939332       -1.60290238       -3.79566682
 C            2.62132521        0.31353264       -3.41817432
 C            2.01091127        1.63914558       -3.39367421
 C            1.71236890       -0.57561988       -4.10171084
 C           -0.42128569        1.93544329       -3.36578972
 C           -0.53821021       -0.47803008       -4.71343868
 C            0.72882450        1.53735405       -4.04136261
 C            0.70593871        0.25903422       -4.72600733
 C           -2.85599223        1.74272475       -3.20112306
 C           -3.70139178        0.58942842       -3.45658205
 C           -2.88086320       -0.41026146       -4.11544064
 C           -1.63181632        1.55666195       -3.94259509
 C           -1.70554586        0.26279631       -4.61704320
