   70
C70 / DATE: 7/ 1/2024 / Origin: Program Fullerene / C70 from database
 C            1.15904654        0.12516251        4.37048985
 C            2.41446411       -0.20424595        3.73681086
 C            2.37689761       -1.62035314        3.41573347
 C            0.31782797       -1.06281751        4.33205587
 C            0.99509167       -2.05269418        3.52917594
 C           -1.00469569       -0.64795294        3.93201857
 C            0.37907823        1.21930811        3.83123473
 C           -1.01177650        0.80288870        3.84373799
 C            0.84514869        1.94328971        2.73802419
 C            2.78579694        0.50055341        2.52576626
 C            1.93314454        1.46835155        1.98997446
 C            3.05061460       -1.79921057        2.14481689
 C            3.38368385       -0.47742343        1.63360104
 C            2.53722751       -2.73535694        1.26233304
 C            0.36161869       -2.57830045        2.40282980
 C            1.15976581       -3.17978703        1.43310245
 C           -1.67960657       -1.36221142        2.95512145
 C           -0.95291043       -2.19492311        2.08099612
 C           -2.87411636       -0.80044168        2.53141724
 C           -1.90586776        1.41365561        2.96321319
 C           -2.96082796        0.65003141        2.45486830
 C           -0.05275083        2.81845395        2.14581015
 C           -1.48020706        2.54220989        2.25907511
 C            0.19968161        3.31075109        0.80656850
 C            2.03101600        1.76028479        0.62340720
 C            1.20566212        2.73037547        0.04330404
 C            3.32005276       -0.24549596        0.26481973
 C            2.90025985        1.01069245       -0.17324052
 C            2.75970263       -2.54331236       -0.15742918
 C            3.26569814       -1.33318291       -0.61420838
 C            0.61673340       -3.44930673        0.11832245
 C            1.64410958       -3.14281788       -0.86746286
 C           -1.51239377       -2.59368335        0.85091424
 C           -0.70014249       -3.12220671       -0.15674994
 C           -3.55696762       -1.35490629        1.38943822
 C           -2.83037008       -2.26506845        0.53686937
 C           -3.53546425        0.98042538        1.15929787
 C           -4.01752412       -0.24790190        0.56415999
 C           -2.08366456        2.86017659        0.97554693
 C           -1.08997983        3.57600563        0.19525428
 C           -2.89837012        1.91726526        0.35829746
 C           -1.18347505        3.55132795       -1.18450781
 C            1.18314700        2.89848345       -1.34510933
 C            0.03508163        3.40231276       -1.95837764
 C            3.07261444        1.34543482       -1.50858726
 C            2.14923342        2.27443957       -2.13016238
 C            3.19557375       -1.08937274       -1.98026639
 C            3.32512893        0.27528784       -2.45115064
 C            1.27440091       -2.62268352       -2.10800648
 C            2.13349823       -1.72824635       -2.74723825
 C           -1.07699356       -2.99492447       -1.49106754
 C           -0.06580818       -2.66748057       -2.48558546
 C           -3.16290657       -1.90944895       -0.83040709
 C           -3.65384634       -0.54282232       -0.80603714
 C           -2.29274546       -2.28132076       -1.83948222
 C           -2.78519797        1.70402303       -1.02053860
 C           -2.18094672        2.68978421       -1.79651052
 C           -2.99473711        0.42448798       -1.56067097
 C           -0.35618173        2.88346450       -3.25506285
 C           -1.70397669        2.35420085       -3.12286827
 C            1.78164287        1.73573907       -3.43559481
 C            2.42482101        0.44704697       -3.57649169
 C            1.59240857       -0.73872056       -3.66846152
 C            0.47151592        1.86418478       -3.86867686
 C           -0.61202880       -1.62787323       -3.34670428
 C           -1.94750070       -1.31251602       -2.86547599
 C           -2.31189338        0.02136865       -2.71480493
 C           -1.67404299        0.96193972       -3.51247364
 C            0.21176600       -0.59887682       -3.79472514
 C           -0.34323831        0.66447952       -4.02427063
