   70
C70 / DATE: 7/ 1/2024 / Origin: Program Fullerene / C70 from database
 C            1.32618363       -0.04628161        4.25576292
 C            2.50476835       -0.34451018        3.45982852
 C            2.42657560       -1.74901604        3.07692277
 C            0.46785549       -1.21792176        4.22980031
 C            1.06459184       -2.18073223        3.32133874
 C           -0.88919712       -0.77559477        3.97025856
 C            0.51772416        1.10501364        3.90928710
 C           -0.84005208        0.64445055        3.65979483
 C            1.05978531        2.07295809        3.08104186
 C            2.97643653        0.59549430        2.54089848
 C            2.33195858        1.82677370        2.41192194
 C            3.83098311        0.17415800        1.52456703
 C            3.05610520       -2.16143941        1.91506871
 C            3.99486923       -1.25048461        1.29371846
 C            2.24649990       -2.74685852        0.85576886
 C            0.29636227       -2.66987176        2.26680804
 C            0.86325717       -2.78144729        0.99318508
 C           -1.70251849       -1.58886363        3.20136876
 C           -1.08748036       -2.63682138        2.39521675
 C           -2.71187431       -0.96829275        2.37023700
 C           -1.54621062        1.13926120        2.55878461
 C           -2.54332111        0.35267322        1.96070339
 C            0.19442418        2.75784366        2.14081626
 C           -1.11246980        2.31775735        1.94292132
 C            2.28155537        2.47568945        1.10879637
 C            0.99344971        3.12726328        0.98357276
 C            3.77291157        0.82710665        0.22402329
 C            2.83305626        1.83645673        0.00724823
 C            3.95008193       -1.47992836       -0.13651747
 C            2.82063117       -2.35075200       -0.41631570
 C            4.00118580       -0.18845042       -0.79375115
 C            1.97991168       -2.02323681       -1.47541892
 C            0.05632444       -2.67955726       -0.14527091
 C            0.60340819       -2.23447539       -1.35906509
 C           -1.91708013       -2.81898833        1.21970777
 C           -3.08348884       -1.96496800        1.38935132
 C           -1.31797042       -2.90729180       -0.03397567
 C           -3.76722328       -1.55404203        0.26031313
 C           -3.18532827        0.78710769        0.79593048
 C           -3.86692522       -0.12697507       -0.00967835
 C           -1.78924606        2.80039377        0.83106665
 C           -2.88750798        2.03768776        0.27289794
 C            0.37297724        3.19052282       -0.25666404
 C           -1.01246371        3.33551437       -0.27545586
 C            2.23069551        1.97579563       -1.24787231
 C            1.03172796        2.69283933       -1.38564818
 C            3.35538893       -0.06010883       -2.00931165
 C            2.44557991       -1.11756615       -2.42481820
 C            2.68256534        1.18666150       -2.30339668
 C            1.51197071       -0.52499355       -3.36316635
 C            1.79436689        0.90481102       -3.41080857
 C           -0.23691949       -1.88381045       -2.42137092
 C            0.19046668       -0.95632749       -3.37690737
 C           -2.13063556       -2.78871133       -1.15704400
 C           -3.45447079       -2.21161811       -0.99358320
 C           -1.57350991       -2.26594029       -2.39034609
 C           -3.86155809        0.05354398       -1.45484562
 C           -3.65898070       -1.25144196       -2.05962567
 C           -2.57658420       -1.41034816       -3.00850056
 C           -2.87589668        2.22469763       -1.17163766
 C           -1.75388431        3.09713395       -1.49831733
 C           -3.21163347        1.15630377       -2.00460476
 C            0.38657433        2.73334048       -2.62574617
 C            0.75414353        1.78162568       -3.66230394
 C           -1.05686220        2.91081822       -2.67992237
 C           -0.74895955       -0.17029099       -4.04105708
 C           -2.15297485       -0.28891152       -3.70077267
 C           -2.59616430        1.02524789       -3.25141598
 C           -0.47128408        1.24340555       -4.22199913
 C           -1.58667765        1.98651939       -3.66179262
