   70
C70 / DATE: 7/ 1/2024 / Origin: Program Fullerene / C70 from database
 C            1.29821146       -0.06090565        4.74138676
 C            2.47917599       -0.09338875        3.90203425
 C            2.51534232       -1.39300767        3.25814458
 C            0.46069490       -1.19183024        4.36821804
 C            1.21116677       -2.00144754        3.43248104
 C           -0.82606424       -0.67196591        3.94608326
 C            0.46548175        1.12016886        4.70377271
 C           -0.89584511        0.68823653        4.42296290
 C            0.77197018        2.16563935        3.74368515
 C            2.63520053        0.90921933        2.86033746
 C            1.68958096        1.92251613        2.71818434
 C            2.99681836       -1.20501121        1.89641594
 C            3.11828034        0.22577628        1.67616452
 C            2.43515245       -1.98115395        0.88033570
 C            0.58006758       -2.46690170        2.29138004
 C            1.38969170       -2.83695641        1.22802070
 C           -1.27713752       -0.96990042        2.66071486
 C           -0.73077856       -2.06827105        2.00443787
 C           -2.00257915       -0.02472558        1.92195648
 C           -1.48140299        1.68193744        3.55602609
 C           -0.50648756        2.75397516        3.40968901
 C           -2.18964259        1.27492533        2.42924555
 C           -0.58858401        3.54932882        2.28064739
 C            1.47035042        2.48292360        1.45506052
 C            0.48817894        3.46328815        1.30413240
 C            2.77960925        0.71527622        0.42641597
 C            2.02286752        1.88544269        0.31468935
 C            2.50445088       -1.50861262       -0.43746007
 C            2.82050110       -0.16374508       -0.64985317
 C            1.91800587       -2.26445369       -1.46251524
 C            0.79926777       -3.59816985        0.24017866
 C            1.27670166       -3.45287438       -1.11558749
 C           -1.29176688       -2.49456830        0.80394784
 C           -0.64707646       -3.55063650        0.16453320
 C           -2.39628571       -0.33808244        0.60688468
 C           -2.05407558       -1.58762233        0.05079820
 C           -3.01340680        0.63930628       -0.18887076
 C           -2.60900003        2.28502126        1.57581020
 C           -1.83178829        3.51264408        1.53745882
 C           -2.97907725        1.96478673        0.21971029
 C           -0.08804204        3.69685963       -0.01117337
 C           -1.52116072        3.79773007        0.15142930
 C           -2.35157005        2.93999615       -0.66262433
 C            1.60914009        2.30039239       -0.95503434
 C            0.39534382        2.97422506       -1.09264922
 C            2.74959443        0.37061851       -1.92448751
 C            2.17675978        1.69642169       -2.07303854
 C            1.74124051       -1.70920217       -2.73963739
 C            2.26977306       -0.45280329       -3.01509214
 C            0.78191576       -2.22582331       -3.61608576
 C            0.22413202       -3.98687968       -1.95492283
 C           -1.01063026       -3.90568389       -1.18516583
 C           -0.01703251       -3.37165313       -3.23692254
 C           -2.38803366       -1.88162197       -1.28527400
 C           -1.91050201       -3.03714146       -1.90096674
 C           -1.40856077       -2.95088444       -3.26291130
 C           -3.12725985        0.43199568       -1.55581009
 C           -2.87743249       -0.87569161       -2.10653363
 C           -1.84911495        2.47956729       -1.87218834
 C           -0.48007020        2.62636733       -2.13220631
 C           -2.52876904        1.41284771       -2.44693283
 C            1.45286289        1.72903199       -3.32880929
 C            1.57057574        0.41874754       -3.94584713
 C            0.04956342        2.09230749       -3.30475428
 C           -0.10547267       -1.31364338       -4.31936653
 C           -1.46743814       -1.67062491       -3.94683362
 C           -2.31095155       -0.69426301       -3.43720451
 C           -1.95441925        0.70777761       -3.57693862
 C            0.25625176        0.02440797       -4.41982989
 C           -0.68646311        1.06044122       -4.01984642
