   70
C70 / DATE: 7/ 1/2024 / Origin: Program Fullerene / C70 from database
 C            1.57107407        0.01853878        4.50739878
 C            0.76873461       -1.15517862        4.22342727
 C            1.54486703       -2.01401875        3.35401373
 C            2.68599392        0.02194806        3.57442558
 C            2.63974487       -1.21076912        2.82700128
 C            2.64106140        1.26138058        2.83810778
 C            0.75855737        1.18437698        4.21938249
 C            1.53361318        2.05140819        3.35817380
 C           -0.52558844       -0.71761393        3.74328178
 C           -0.52654219        0.73410739        3.72754197
 C           -1.07080070       -1.40206926        2.66606647
 C            0.86193724       -2.82587817        2.45698987
 C           -0.51666231       -2.63304112        2.30922337
 C            1.58450942       -3.27383720        1.35780838
 C            2.83068518       -1.18502509        1.44695818
 C            2.56613493       -2.37250541        0.77781256
 C            2.84634533        1.24956148        1.45955033
 C            2.73520272        0.03675083        0.75316237
 C            2.59247088        2.44658882        0.80286804
 C            0.85416945        2.85814600        2.45497138
 C            1.60061483        3.33625093        1.38506508
 C           -1.05830493        1.39467329        2.62870156
 C           -0.51392569        2.62770408        2.25953678
 C           -1.84977531       -0.71175189        1.73336091
 C           -1.83021530        0.68429468        1.70463376
 C           -2.44301063       -1.42276247        0.68757973
 C           -1.21230472       -3.41664103        1.39712739
 C           -2.33221955       -2.81507591        0.69745063
 C            0.89070083       -3.94748925        0.27786364
 C           -0.46563702       -4.19213792        0.41819243
 C            2.36554095       -2.36555125       -0.65152391
 C            1.39204611       -3.40042585       -0.97564234
 C            2.40910071        0.04425930       -0.62063985
 C            2.31976047       -1.15937000       -1.33055239
 C            2.39811542        2.45731188       -0.62820173
 C            2.20683053        1.25727181       -1.29751318
 C            0.93260330        4.03678319        0.30737123
 C            1.54439678        3.59222316       -0.93919093
 C           -1.19793004        3.38498495        1.31588341
 C           -0.44318137        4.20963418        0.38650991
 C           -2.37450950        1.35733835        0.61340835
 C           -2.25985362        2.74400995        0.56090190
 C           -2.85415631       -0.74340407       -0.46976958
 C           -2.69260895        0.64170632       -0.54347729
 C           -3.05485928       -1.43618048       -1.66616359
 C           -2.52141630       -3.57633556       -0.51962323
 C           -1.28008879       -4.28957084       -0.77661923
 C           -2.87842610       -2.87175731       -1.72716307
 C            0.52525309       -3.20880215       -2.05233549
 C           -0.74445855       -3.79037113       -2.03030282
 C           -1.84401642       -3.13581124       -2.71607035
 C            1.77859893       -1.16548917       -2.60868439
 C            0.80389756       -2.18865123       -2.96254679
 C            1.60303328        1.27621557       -2.56013345
 C            1.36144793        0.07823856       -3.21690834
 C            0.79827778        3.56775859       -2.10914883
 C            0.83462845        2.37767908       -2.94119601
 C           -1.21980255        4.32197844       -0.83299388
 C           -2.35275353        3.41535104       -0.71944397
 C           -0.56885315        4.06285071       -2.10268236
 C           -2.52388846        1.23046352       -1.80362923
 C           -0.50769924        2.14273804       -3.45353692
 C           -2.39843969        2.60758151       -1.91949198
 C           -1.39020815        3.10998327       -2.82866271
 C           -2.48675655       -0.88935010       -2.88279046
 C           -1.58936606       -1.89676086       -3.42465912
 C           -0.27819029       -1.54009656       -3.69159035
 C            0.04765187       -0.13113388       -3.80170917
 C           -2.08579898        0.43966477       -2.86404392
 C           -0.93535176        0.82310056       -3.56311128
