   70
C70 / DATE: 7/ 1/2024 / Origin: Program Fullerene / C70 from database
 C            1.65301044       -0.03294905        4.68654618
 C            0.82175365       -1.19774848        4.44431978
 C            1.35586810       -1.89984637        3.28803617
 C            2.67258107       -0.00075697        3.65653118
 C            2.57429562       -1.22231721        2.88025772
 C            2.55794961        1.25673331        2.94222458
 C            0.81935268        1.14186258        4.51327885
 C            1.33249826        1.89980813        3.38175769
 C           -0.55978078       -0.75650733        4.41174092
 C           -0.56177025        0.70090861        4.47955545
 C           -1.43344477       -1.40229079        3.54538042
 C            0.47956005       -2.35259621        2.30490017
 C           -0.89555104       -2.30902436        2.54069982
 C            0.93866691       -2.48811949        0.99377693
 C            2.86310319       -1.14193521        1.52474360
 C            2.20215274       -1.99520769        0.64539552
 C            2.84230804        1.24799101        1.58654815
 C            3.33692263        0.06904316        1.02958183
 C            2.15206029        2.13044633        0.76025327
 C            0.43365886        2.37737141        2.42658503
 C            0.83641986        2.46991075        1.08802616
 C           -1.44961846        1.41647456        3.68922902
 C           -0.92081732        2.38760943        2.73975006
 C           -2.51705149       -0.65708848        2.92562927
 C           -2.54538432        0.72400155        3.03320219
 C           -1.81364651       -2.31069668        1.41283310
 C           -2.80142944       -1.27217408        1.63902622
 C            0.03341891       -2.83337930       -0.00888257
 C           -1.30554710       -2.48361209        0.13217374
 C            0.51370634       -3.14476383       -1.26929415
 C            2.60271107       -2.01122481       -0.69271280
 C            1.87393486       -2.76667854       -1.60617805
 C            3.78814130        0.10527365       -0.28107995
 C            3.45943456       -1.00799009       -1.15718029
 C            2.59182603        2.26993664       -0.54933035
 C            3.58697964        1.33010745       -1.03334896
 C            1.61481527        2.45815221       -1.60331585
 C           -0.11542136        2.64867550        0.06752353
 C            0.27054349        2.52377070       -1.27375993
 C           -1.89468433        2.53220081        1.68179892
 C           -2.91044760        1.50954578        1.87219283
 C           -1.47350589        2.79967010        0.38478833
 C           -3.19487462       -0.48715900        0.55988115
 C           -3.41507390        0.88804759        0.73782141
 C           -1.99209832       -1.93956221       -0.95788422
 C           -3.00773122       -0.99632245       -0.72948522
 C           -0.32761880       -2.88488845       -2.42424804
 C           -1.53520600       -2.20929515       -2.25698222
 C            1.89758633       -2.39803760       -3.00972171
 C            0.54172140       -2.49287877       -3.52121674
 C            3.30049053       -0.47390853       -2.50496903
 C            3.24622838        0.97057188       -2.39680794
 C            2.00927373        1.64603566       -2.74124859
 C            2.42352034       -1.09832918       -3.37716979
 C            0.24465628       -1.26239876       -4.23195581
 C            1.02730284        0.94430853       -3.43440402
 C            1.32308347       -0.32737893       -3.94218447
 C           -0.67170623        2.17911400       -2.23939751
 C           -0.30608231        1.34029926       -3.30496845
 C           -2.42985091        2.64682875       -0.61985840
 C           -3.50769097        1.69419962       -0.38954138
 C           -2.00383021        2.48381448       -1.99490201
 C           -3.60532683       -0.33359403       -1.79579388
 C           -3.84087711        1.08479898       -1.65782377
 C           -3.05202262        1.75256789       -2.67784597
 C           -2.01366477       -1.46708011       -3.33474138
 C           -1.05956568       -0.79818272       -4.20528187
 C           -1.27635485        0.61657066       -3.99788537
 C           -3.10838302       -0.54277111       -3.13657998
 C           -2.67547773        0.75204311       -3.64800852
