   70
C70 / DATE: 7/ 1/2024 / Origin: Program Fullerene / C70 from database
 C            1.39608096        0.08210170        5.20678171
 C            0.53890443       -1.06177623        5.45066050
 C            1.10486032       -2.19102330        4.73779020
 C            2.44009905       -0.33140847        4.28371536
 C            2.19546730       -1.70661968        3.90883699
 C            2.49816619        0.65517903        3.23144527
 C            0.60283329        1.08779881        4.52504481
 C            1.39334865        1.57615206        3.41203552
 C           -0.75653008       -0.78629840        4.85032245
 C           -0.69406703        0.51477708        4.22238177
 C            0.01034189       -2.86693283        4.07763374
 C           -1.10349008       -1.92162117        4.02403363
 C            0.30634098       -3.57957743        2.92735647
 C            2.20613494       -2.05377075        2.55601985
 C            1.48068619       -3.17817901        2.15651264
 C            2.75009711        0.24154686        1.93318149
 C            2.59169894       -1.11140577        1.58945915
 C            2.55286052        1.18967110        0.93637127
 C            0.72855165        1.97666109        2.25876285
 C            1.47629420        2.06963576        1.08303125
 C           -1.16986035        0.65861588        2.92389675
 C           -0.62800634        1.66905538        2.13543456
 C           -1.73891305       -1.70163364        2.80064931
 C           -1.83872466       -0.39569692        2.29061526
 C           -0.76805460       -3.78151877        1.98127083
 C           -1.81220758       -2.77539304        1.92285064
 C            1.17764277       -3.37333203        0.74652095
 C           -0.17606967       -3.87336948        0.66165260
 C            2.50400571       -1.44891983        0.23145441
 C            1.58374335       -2.41437941       -0.17455677
 C            2.99536261        0.86617665       -0.33062865
 C            2.96176013       -0.53366606       -0.70832985
 C            2.53401545        1.63910096       -1.46306676
 C            0.83348114        2.58136403       -0.04827791
 C            1.43971619        2.48367326       -1.30734973
 C           -1.24724714        1.97024659        0.93373163
 C           -0.54472927        2.76222093        0.03557028
 C           -2.31793492       -0.18410325        0.98762660
 C           -2.21865559        1.09974235        0.43440893
 C           -2.09022843       -2.53238427        0.52634259
 C           -1.07621515       -3.21629853       -0.25516985
 C           -2.46117157       -1.26175101        0.11226405
 C            0.81553601       -2.20113464       -1.33258259
 C           -0.54360407       -2.52140162       -1.32824682
 C            2.44570066       -0.59333593       -2.06350140
 C            2.57505986        0.74837401       -2.60467465
 C            1.28342429       -1.32033317       -2.31562393
 C            1.82313319        1.08366959       -3.71213937
 C            0.73256170        2.88052381       -2.44850984
 C            1.09647734        2.33843855       -3.68712696
 C           -1.23338780        3.26312276       -1.05195224
 C           -0.51016599        3.49325050       -2.28356827
 C           -2.70022378        1.32962686       -0.86251713
 C           -2.46797624        2.59599451       -1.40732488
 C           -2.37857945       -0.99838045       -1.24904511
 C           -1.40046715       -1.66419740       -1.99358685
 C           -2.84262380        0.22472921       -1.71239364
 C            0.41506495       -0.87761426       -3.32808617
 C            0.88124827        0.10296716       -4.21039336
 C           -0.96294272       -1.09504854       -3.17859141
 C            0.13177422        2.24836580       -4.77158635
 C           -0.04463701        0.83057270       -5.06209223
 C           -1.49983487        3.47810677       -3.34990914
 C           -2.70016578        2.84630658       -2.81733133
 C           -1.17984625        2.83913781       -4.60886254
 C           -2.87701237        0.39531420       -3.09571878
 C           -1.88693312       -0.32190307       -3.87599463
 C           -1.45216488        0.53503167       -4.95654687
 C           -3.01425324        1.72082989       -3.66087058
 C           -2.16555042        1.79632645       -4.83950972
