   70
C70 / DATE: 7/ 1/2024 / Origin: Program Fullerene / C70 from database
 C            1.26226376       -0.00160606        4.30472460
 C            2.50476637       -0.22120039        3.60789603
 C            2.54200839       -1.62339513        3.23962534
 C            0.45112753       -1.20767415        4.16442263
 C            1.18356128       -2.12723979        3.33311309
 C           -0.86198325       -0.78503961        3.73601495
 C            0.42505325        1.10431009        3.89461713
 C           -0.92979955        0.62501773        4.06118929
 C            0.73064144        1.83719735        2.74170026
 C            2.76741734        0.54304265        2.40681316
 C            1.84179524        1.48915945        1.95664090
 C            3.21301579       -1.72185633        1.95820926
 C            3.35875892       -0.36930591        1.44201764
 C            2.78349050       -2.70761159        1.08788537
 C            0.59431522       -2.64180038        2.18251582
 C            1.44859062       -3.25974948        1.28004172
 C           -1.35715986       -1.20764198        2.50072039
 C           -0.63180714       -2.12631418        1.72173175
 C           -2.37835718       -0.45485304        1.91363382
 C           -1.93471919        1.36652922        3.48487596
 C           -2.83540097        0.68672355        2.57575057
 C           -0.28689849        2.62572347        2.18950721
 C           -1.55136779        2.57613175        2.78954416
 C           -0.13953112        3.15227484        0.89787624
 C            1.88343755        1.86753082        0.61410949
 C            0.99269994        2.83603435        0.14479347
 C            3.13760319       -0.12263242        0.09176983
 C            2.68154178        1.13547837       -0.27716541
 C            2.93565423       -2.48795514       -0.33509195
 C            3.03148695       -1.18478636       -0.81766511
 C            0.95267840       -3.65185546       -0.01663682
 C            2.02057694       -3.40755286       -0.97522448
 C           -1.08889211       -2.45034816        0.43104148
 C           -0.35331305       -3.34244199       -0.37101110
 C           -2.68087802       -0.64270804        0.56492321
 C           -2.20583042       -1.77751287       -0.08923489
 C           -3.19051556        0.41077614       -0.20720761
 C           -3.49211375        1.73687537        1.82148637
 C           -2.73003188        2.95968074        2.04317110
 C           -3.64110423        1.57532707        0.39437086
 C           -1.21403046        3.78208204        0.26030944
 C           -2.55711637        3.61211445        0.76944097
 C           -3.28580328        2.83855039       -0.22362128
 C           -1.33208842        3.67869312       -1.18128349
 C           -2.47109790        2.81173860       -1.43067352
 C            1.05635800        3.25764607       -1.18383797
 C           -0.18020572        3.46920500       -1.91210315
 C            2.72461212        1.46637372       -1.61980898
 C            1.96086151        2.59512053       -2.09935379
 C            2.68427089       -0.92539548       -2.15211364
 C            2.59855991        0.39681592       -2.58975182
 C            1.67869395       -3.18529216       -2.29671853
 C            2.01949711       -1.90398246       -2.89899521
 C           -0.71274022       -3.56297135       -1.69834654
 C            0.32805630       -3.52042364       -2.71206052
 C           -2.56282091       -1.93742189       -1.42613922
 C           -1.86926982       -2.89957566       -2.24755575
 C           -2.89142298        0.45537740       -1.56335794
 C           -2.26147230        1.59093715       -2.07445535
 C           -2.75335761       -0.74638894       -2.23076335
 C           -0.20413798        2.46980663       -2.96403702
 C            1.17516277        2.14426684       -3.23951741
 C            1.51522316        0.76223866       -3.48972172
 C           -1.13843550        1.43869347       -2.89731383
 C            0.90344204       -1.50029777       -3.74084142
 C           -0.07955262       -2.56192460       -3.72370113
 C           -1.45639063       -2.21816304       -3.46859904
 C           -1.80533621       -0.81946057       -3.32126272
 C            0.50614100       -0.16585910       -3.71623384
 C           -0.82838086        0.17276504       -3.41507798
