   70
C70 / DATE: 7/ 1/2024 / Origin: Program Fullerene / C70 from database
 C            1.57195190       -0.02744242        4.55499158
 C            0.75883983       -1.22616958        4.54342122
 C            1.28206156       -2.12926041        3.52850856
 C            2.61961136       -0.20330582        3.57009892
 C            2.42160314       -1.47977414        2.90945435
 C            2.63549020        0.98227069        2.73865956
 C            0.73280559        1.07153834        4.10549238
 C            1.39854646        1.70268877        2.98402794
 C           -0.62377804       -0.80746637        4.42752391
 C           -0.60350712        0.55158633        3.90479476
 C           -1.50648322       -1.70914237        3.86088053
 C            0.36728332       -2.81468401        2.73516139
 C           -0.94817833       -2.87662971        3.20050717
 C            0.63084070       -2.97826321        1.36574442
 C            2.55979523       -1.51107373        1.52911277
 C            1.68747106       -2.28678004        0.76032169
 C            3.02302763        0.84000306        1.41622711
 C            3.22584155       -0.45087191        0.91824957
 C            2.61107554        1.82442198        0.52541749
 C            0.64804706        2.09357815        1.87721959
 C            1.33435423        2.36978598        0.69193429
 C           -1.25551722        0.82738184        2.70399803
 C           -0.70968853        1.75681981        1.80789859
 C           -2.52001573       -1.20647947        2.95643026
 C           -2.28623966       -0.01252452        2.27870399
 C           -1.99489070       -3.40704763        2.35306445
 C           -2.99180605       -2.35417264        2.20731250
 C           -0.29770160       -3.62419890        0.54649598
 C           -1.64134933       -3.87079439        1.03081718
 C           -0.41322069       -3.21661477       -0.84389929
 C            1.72585282       -2.17650291       -0.63597954
 C            0.56332531       -2.38646963       -1.37127113
 C            3.57315603       -0.59033523       -0.41793572
 C            2.76869509       -1.48150216       -1.23592265
 C            3.21385182        1.84543239       -0.72187491
 C            3.81568721        0.61367037       -1.19090702
 C            2.52135060        2.45052719       -1.83957918
 C            0.61393228        2.82048173       -0.41650216
 C            1.27085171        3.02831642       -1.63908478
 C           -1.42209640        2.08413887        0.65431608
 C           -0.78354025        2.82283305       -0.34726039
 C           -2.83450744        0.17796628        1.01213391
 C           -2.60003498        1.38633557        0.36049724
 C           -3.25489724       -2.19280123        0.79442024
 C           -2.56025583       -3.25263328        0.09164572
 C           -1.80532476       -2.89364124       -1.09872297
 C           -3.21182628       -0.92477755        0.23450400
 C           -2.09345201       -1.68707819       -1.73085860
 C           -3.03537813       -0.84258822       -1.14117572
 C            0.22086539       -1.48290299       -2.38157106
 C           -1.12283418       -1.12540139       -2.56194327
 C            2.53174381       -0.82605481       -2.51362252
 C            3.34143719        0.37614440       -2.53947406
 C            2.72595664        1.59916159       -3.00641950
 C            1.23596707       -0.77154844       -3.02797552
 C            1.68566240        1.48868379       -3.91358446
 C            0.90657424        0.25209422       -3.91926387
 C            0.53876433        3.37098991       -2.77330390
 C            0.74547482        2.58888880       -3.97906433
 C           -1.53627373        3.32336942       -1.40334819
 C           -0.88240367        3.61686844       -2.66058408
 C           -3.19223427        1.55381970       -0.88721102
 C           -3.29246841        0.38101504       -1.73538585
 C           -2.78128507        2.66331940       -1.72328424
 C           -1.45248878        0.01255368       -3.29971781
 C           -0.48797392        0.60944566       -4.10721155
 C           -0.53886188        2.04150720       -4.36261978
 C           -1.54886168        2.83996721       -3.69940752
 C           -2.61909917        0.70570318       -2.97531670
 C           -2.65932084        2.15362487       -3.07870405
