   70
C70 / DATE: 7/ 1/2024 / Origin: Program Fullerene / C70 from database
 C            1.22228168       -0.02510654        4.33515093
 C            2.49054843       -0.33543933        3.72012022
 C            2.42013944       -1.70167698        3.22042071
 C            0.37904570       -1.20598138        4.23571696
 C            1.05165446       -2.15555626        3.37543408
 C           -0.95186147       -0.76710724        3.86314574
 C            0.46016323        1.09475949        3.82372247
 C           -0.93263631        0.68546698        3.77331605
 C            0.96358721        1.88105668        2.78976214
 C            2.95224738        0.49316310        2.62461230
 C            2.12773473        1.49636269        2.10596479
 C            3.00786104       -1.70564440        1.89213125
 C            3.62373581       -0.40489724        1.70586296
 C            2.29354216       -2.26986508        0.83697893
 C            0.37504334       -2.63239977        2.25990619
 C            1.09914181       -2.93875488        1.10455637
 C           -1.65868548       -1.48055838        2.90300878
 C           -1.01697012       -2.50312506        2.19425266
 C           -2.77873391       -0.86728502        2.35252038
 C           -1.78865457        1.32015604        2.87380123
 C           -2.83167031        0.58669013        2.31184064
 C            0.07975627        2.76635570        2.18853431
 C           -1.34759642        2.47894663        2.23763422
 C            0.38223375        3.31254697        0.88258985
 C            2.37000470        1.95566832        0.80321098
 C            1.50217111        2.86897138        0.19598026
 C            3.84925386        0.03318230        0.41573710
 C            3.37783055        1.35447526        0.04714757
 C            2.59269931       -1.88314250       -0.47457109
 C            3.50174584       -0.84562107       -0.68642584
 C            1.82054682       -2.35898077       -1.54202901
 C            0.47315880       -3.62375013        0.07482360
 C            0.78976481       -3.26340784       -1.29361052
 C           -1.71046341       -3.17554050        1.19177174
 C           -0.95698848       -3.85443097        0.15492881
 C           -3.36208357       -1.37759032        1.12327615
 C           -2.84165611       -2.52638277        0.55203081
 C           -3.39053831        0.97556012        1.02565229
 C           -3.66656976       -0.23918046        0.27425721
 C           -1.92963713        2.88443686        0.96641730
 C           -0.87215143        3.48259485        0.16483605
 C           -2.89204345        2.08801278        0.35198832
 C           -0.89536880        3.33596652       -1.21871711
 C            1.55259148        3.07445421       -1.18147747
 C            0.31360112        3.28896980       -1.91477335
 C            3.30085145        1.37705977       -1.40171263
 C            3.36973945       -0.00387170       -1.86141859
 C            2.42953926        2.26595785       -2.01075323
 C            1.79271509       -1.65470130       -2.74687912
 C            2.55641094       -0.42789376       -2.90041484
 C            0.51824227       -1.47331785       -3.42231459
 C           -0.46705953       -3.10508872       -2.01129015
 C           -1.54211320       -3.49683378       -1.12745476
 C           -2.60859818       -2.55067206       -0.88164882
 C           -0.62764549       -1.99310238       -2.82844695
 C           -3.35407750       -0.27154713       -1.08058586
 C           -2.63081878       -1.35525493       -1.59601728
 C           -1.75873239       -1.17843676       -2.68345281
 C           -3.04003476        2.15204316       -1.03267511
 C           -2.06606745        2.88664626       -1.82432666
 C           -3.37008318        0.93725288       -1.76305367
 C           -1.88660927       -0.05201648       -3.49292192
 C           -2.00997469        2.26441035       -3.13598630
 C           -2.76158657        1.02082884       -3.07234482
 C            0.41301092        2.56864761       -3.17817842
 C            1.68024365        1.85610819       -3.18768346
 C            1.72599376        0.53249996       -3.61146899
 C            0.50112624       -0.14461078       -4.00987788
 C           -0.71711999        1.97276164       -3.72183768
 C           -0.69512782        0.55675919       -4.05869342
