   70
C70 / DATE: 7/ 1/2024 / Origin: Program Fullerene / C70 from database
 C            1.31228644       -0.01932320        4.82981516
 C            2.49761495       -0.15615577        4.01245815
 C            2.53429672       -1.52207070        3.51540976
 C            0.49705305       -1.20980273        4.63018204
 C            1.25410103       -2.13801809        3.80918825
 C           -0.81374821       -0.77494125        4.17286015
 C            0.46199802        1.13122905        4.61390436
 C           -0.89520348        0.64024591        4.44337332
 C            0.73489630        2.01562634        3.49096396
 C            2.67754341        0.72791703        2.87044474
 C            1.70568819        1.67531545        2.55158887
 C            2.98931310       -1.47019941        2.13658054
 C            3.24041702       -0.07756152        1.81013109
 C            2.37906231       -2.27171035        1.17183990
 C            0.59551177       -2.81513330        2.79380779
 C            1.27612128       -3.04823995        1.52858954
 C           -1.31164377       -1.26870999        2.96580653
 C           -0.77979905       -2.45716349        2.47704844
 C           -2.06937704       -0.44172406        2.11549277
 C           -1.52706623        1.47720874        3.45648244
 C           -0.55582221        2.46811892        3.02086396
 C           -2.32037630        0.89235415        2.48064610
 C           -0.67612707        2.94376628        1.72197713
 C            1.51402722        2.03806748        1.21358759
 C            0.42608646        2.85043474        0.86656893
 C            3.05020846        0.31063919        0.49726806
 C            2.31758399        1.46544198        0.21396238
 C            2.54628775       -1.92447532       -0.17101261
 C            3.10956410       -0.67978293       -0.46719537
 C            1.77518932       -2.57123792       -1.13994920
 C            0.24121050       -3.30065317        0.54136476
 C           -1.01551243       -2.83620819        1.10143780
 C            0.50284046       -3.02547974       -0.79334400
 C           -2.41311793       -0.89036406        0.82461865
 C           -1.83620138       -2.05573097        0.30528507
 C           -3.19806127       -0.08698993       -0.01396410
 C           -2.79990432        1.76915115        1.52122827
 C           -1.95276450        2.89660052        1.16886756
 C           -3.37154755        1.25448548        0.30131494
 C           -2.14261062        3.17578162       -0.24131240
 C           -3.16952825        2.26728192       -0.72516565
 C            0.29589780        3.29412829       -0.44587028
 C           -1.03096031        3.44100721       -1.02666631
 C            2.15635209        1.84251325       -1.12740647
 C            1.17140355        2.76161888       -1.47087978
 C            3.21836389       -0.27392664       -1.78465724
 C            2.67064223        1.02371249       -2.13692747
 C            2.07698199       -2.36548030       -2.48316002
 C            2.87763962       -1.21071566       -2.83569080
 C            1.01523079       -2.47223239       -3.46738864
 C           -0.57514689       -2.73432068       -1.63086888
 C           -1.75298477       -2.22484772       -1.07371781
 C           -0.35063298       -2.61938675       -2.99879416
 C           -3.45001261       -0.49409674       -1.32452715
 C           -2.69848929       -1.60413165       -1.87845138
 C           -3.17348901        1.87838700       -2.05618121
 C           -3.56717350        0.51696470       -2.36405303
 C           -0.98374812        2.95516945       -2.39667123
 C            0.37613822        2.53220126       -2.66995565
 C           -2.04017784        2.21661838       -2.90840905
 C            1.90753954        0.85468538       -3.36465764
 C            2.17584382       -0.47550974       -3.87373953
 C            1.06465554       -1.28483601       -4.31031717
 C            0.62503376        1.39590389       -3.43645136
 C           -1.16428128       -1.70671470       -3.77844531
 C           -2.38188308       -1.29296858       -3.26480012
 C           -2.78931946        0.07809306       -3.50690540
 C           -1.75848090        1.07234348       -3.75712294
 C           -0.25960478       -0.69939287       -4.30726819
 C           -0.44582827        0.63722379       -3.94303145
