   70
C70 / DATE: 7/ 1/2024 / Origin: Program Fullerene / C70 from database
 C            1.54756072        0.17669063        4.96985052
 C            0.75204344       -1.01621519        4.74721233
 C            1.45733747       -1.85903146        3.79485666
 C            2.67043230        0.13437592        4.05069673
 C            2.69263140       -1.17896933        3.43480299
 C            2.59143042        1.30288516        3.18807665
 C            0.73189222        1.32102186        4.60921693
 C            1.48676102        2.12141576        3.66338087
 C           -0.60252993       -0.59927649        4.42989232
 C           -0.57862157        0.83662675        4.20505342
 C           -1.33906250       -1.39286969        3.56983903
 C            0.71748621       -2.51176153        2.80834094
 C           -0.67528427       -2.50582643        2.91191626
 C            1.32216346       -2.83267712        1.58610546
 C            3.14757405       -1.27692052        2.13131672
 C            2.54261303       -2.25548352        1.24760175
 C            2.79161409        1.14068139        1.81408691
 C            3.32985030       -0.05840055        1.35573562
 C            2.16595640        2.00931332        0.90988954
 C            0.77377908        2.85724548        2.73568718
 C            1.31309994        2.99128972        1.39804864
 C           -1.15784125        1.37570188        3.05381097
 C           -0.64444062        2.57458191        2.57205067
 C           -2.17143276       -0.75605425        2.56568127
 C           -1.92176014        0.56335715        2.20346862
 C           -1.48638360       -2.84984381        1.76231188
 C           -2.40262499       -1.74182051        1.52894948
 C            0.57002603       -3.42052549        0.57159319
 C           -0.87943581       -3.45094062        0.67375615
 C            0.91182162       -3.14430729       -0.81924671
 C            2.75716395       -1.79629223       -0.11615240
 C            3.19118660       -0.41377271       -0.03976774
 C            1.85033675       -2.16184502       -1.11045423
 C            2.11952370        1.70254734       -0.45669415
 C            2.63262320        0.48826797       -0.92296898
 C            1.34045522        2.48991538       -1.32213740
 C            0.21155334        3.42937439        0.56950390
 C           -1.00972809        3.02030714        1.24750363
 C            0.27868023        3.23889746       -0.80260459
 C           -2.22981889        0.98749120        0.90049488
 C           -1.94962885        2.30580463        0.52010241
 C           -2.62227762       -1.31907816        0.22518589
 C           -2.65493533        0.05097831       -0.06083960
 C           -1.41723412       -3.19459392       -0.64846401
 C           -0.31256248       -3.20859417       -1.59230737
 C           -2.40864519       -2.23089726       -0.80830361
 C           -0.44105204       -2.44543419       -2.74575357
 C            1.60832606       -1.28199952       -2.17208278
 C            2.18195603       -0.00399332       -2.13623653
 C            0.59686875       -1.57353449       -3.09987893
 C            1.36443014        2.20669658       -2.69138769
 C            1.88190007        0.92094976       -3.11891038
 C            0.19192925        2.48763999       -3.50556183
 C           -0.93614923        3.24441897       -1.48101451
 C           -2.09407956        2.67586281       -0.80955376
 C           -0.98753134        2.85813008       -2.87624825
 C           -2.97534000        0.46351263       -1.35886453
 C           -2.73994050        1.77866157       -1.73919161
 C           -2.19952044        2.06880552       -3.06088301
 C           -2.71655778       -1.85100623       -2.10553486
 C           -1.74306011       -2.14734299       -3.14039983
 C           -3.17540444       -0.49847386       -2.34563497
 C           -2.25934752        1.09587411       -4.05121188
 C           -1.97705437       -1.22810656       -4.23294126
 C           -2.86179585       -0.18500438       -3.73363847
 C            0.47388048       -0.78607379       -4.24712061
 C            1.14814055        0.49489472       -4.28987201
 C            0.15442668        1.51503607       -4.58346644
 C           -0.83425346       -0.59120288       -4.84802501
 C           -1.09411952        0.83891595       -4.88266689
