   70
C70 / DATE: 7/ 1/2024 / Origin: Program Fullerene / C70 from database
 C            1.20654537       -0.08802173        4.56144023
 C            2.37896118       -0.40254830        3.77868434
 C            2.20953171       -1.75094245        3.25925663
 C            0.36211411       -1.27256038        4.57067153
 C            0.84221324       -2.14629916        3.51684636
 C           -1.00995021       -0.82104854        4.52142158
 C            0.37519948        1.02387532        4.14599654
 C           -0.99237832        0.62962183        4.40340103
 C            0.65355840        1.69282040        2.95532397
 C            2.71135490        0.44677282        2.65209393
 C            1.88509493        1.51242781        2.30450632
 C            2.67198340       -1.74398577        1.88900677
 C            3.18103718       -0.42053473        1.59259585
 C            1.91240887       -2.36345183        0.91294262
 C            0.01463727       -2.44176505        2.43177751
 C            0.59222628       -2.74854680        1.18942773
 C           -1.86514656       -1.32467372        3.46693176
 C           -1.36689223       -2.22241411        2.52730502
 C           -2.00468073        1.00252427        3.43428811
 C           -2.67510986       -0.21404318        3.00012694
 C           -0.38056017        2.37660402        2.30590885
 C           -1.70953936        1.96639718        2.47859350
 C           -0.05775789        3.24898271        1.27171540
 C            2.08196311        2.09640605        1.05254771
 C            1.26114241        3.15415337        0.67765883
 C            3.08085023        0.03961181        0.28413497
 C            2.79353050        1.38672955        0.07630503
 C            2.27243768       -2.12774485       -0.40431999
 C            2.80521163       -0.87391357       -0.74011862
 C            1.68542328       -2.92367771       -1.37000285
 C           -0.21466226       -3.21791971        0.14444198
 C            0.34204279       -3.40574883       -1.12084016
 C           -2.17072977       -2.48103305        1.42659731
 C           -1.59217177       -3.06500531        0.23395356
 C           -3.20703529       -0.26750390        1.71124002
 C           -3.13587338       -1.47157413        1.01151768
 C           -2.60665539        2.09539297        1.42466106
 C           -3.36044917        0.92450770        1.00483061
 C           -1.01025171        3.47877521        0.19667424
 C           -2.23967566        2.84880126        0.24006122
 C            1.14291627        3.51867917       -0.72216541
 C           -0.27363007        3.50556642       -1.05333213
 C            2.88979782        1.88446149       -1.21811364
 C            2.04743999        2.99579959       -1.63089310
 C            2.79456615       -0.42088448       -2.06709378
 C            2.95926814        0.94010569       -2.32111612
 C            1.78274576       -2.54636362       -2.76087912
 C            2.28728576       -1.23033935       -3.08320577
 C           -0.45394668       -3.08511079       -2.29686523
 C            0.45925476       -2.67564338       -3.34975229
 C           -2.32591259       -2.55174460       -0.91287588
 C           -3.18937350       -1.47874376       -0.44290807
 C           -1.66842091       -2.42408536       -2.13151945
 C           -3.39146924        0.91619267       -0.45003647
 C           -2.70065854        2.10850177       -0.92120621
 C           -3.24000940       -0.27961395       -1.14540206
 C           -0.71858375        2.76259286       -2.14870756
 C           -1.90658192        2.02560214       -2.06242371
 C            1.58715149        2.72495887       -2.98045275
 C            2.26753557        1.53297465       -3.45269168
 C            0.16411399        2.54177890       -3.20570861
 C            1.39414371       -0.65556330       -4.07832906
 C            0.18388182       -1.46178117       -4.09331733
 C            1.30338929        0.72659238       -4.17927182
 C            0.00387523        1.37365735       -4.05451428
 C           -2.01142155       -1.36923066       -2.97856257
 C           -2.76578347       -0.24126346       -2.45306838
 C           -2.14523087        0.97775708       -2.94838897
 C           -1.05263237       -0.84840035       -3.94574623
 C           -1.14365909        0.60409970       -3.93105741
