   70
C70 / DATE: 7/ 1/2024 / Origin: Program Fullerene / C70 from database
 C            1.27626812        0.04029230        4.35662747
 C            2.56591497       -0.25773011        3.78279041
 C            2.57273388       -1.67143949        3.44715320
 C            0.45567697       -1.16050169        4.25533274
 C            1.19120532       -2.11940277        3.46454747
 C           -0.85367433       -0.74346234        3.80174542
 C            0.49835081        1.12108929        3.78936501
 C           -0.88265347        0.70172278        3.90444460
 C            0.90924377        1.74247798        2.60603600
 C            2.97490158        0.45891144        2.59357327
 C            2.08378263        1.33039332        1.95989142
 C            3.33232036       -1.82249061        2.21920488
 C            3.72921820       -0.48668102        1.79224693
 C            2.87093584       -2.72646528        1.27118940
 C            0.63347075       -2.61339786        2.28806463
 C            1.48957492       -3.18441463        1.34939486
 C           -1.41385436       -1.33349961        2.67373153
 C           -0.65259436       -2.21886034        1.89127087
 C           -2.54423500       -0.72655447        2.12037127
 C           -1.82515754        1.38721613        3.16254096
 C           -2.77545236        0.62757496        2.36440211
 C           -0.03353847        2.49364640        1.90104909
 C           -1.36591190        2.47354348        2.32060107
 C            0.26522063        2.96357700        0.62291507
 C            2.28070642        1.63900459        0.60992135
 C            1.33348424        2.39848313       -0.07938739
 C            3.89038522       -0.22160798        0.44136638
 C            3.26319405        0.96426153       -0.11594609
 C            3.18150356       -2.50838797       -0.13038832
 C            3.72987353       -1.29381715       -0.52918872
 C            1.02087975       -3.41987153       -0.00398735
 C            2.11241976       -3.10880743       -0.91173254
 C           -1.15607376       -2.65492408        0.66172838
 C           -0.27685760       -3.06030922       -0.34755058
 C           -3.16102011       -1.31450700        1.02375629
 C           -2.48862608       -2.40981183        0.35643734
 C           -3.72481733       -0.45623791       -0.00809232
 C           -3.19154083        1.48385876        1.26177696
 C           -2.42154682        2.71445931        1.35516159
 C           -3.43696416        0.90373194        0.01843039
 C           -0.70906979        3.69202704       -0.05902087
 C           -2.10639637        3.39379629        0.19558104
 C           -0.58079203        3.89924399       -1.48671545
 C            1.33191058        2.37914669       -1.48079743
 C            0.47013533        3.20221081       -2.19282896
 C            3.05222521        0.72120188       -1.53087673
 C            3.30549703       -0.68826189       -1.78131850
 C            1.98169495        1.34630776       -2.15564177
 C            1.81430643       -2.60586422       -2.16956557
 C            2.45576824       -1.38349150       -2.62999205
 C           -0.59048962       -2.83893997       -1.69467680
 C            0.42751619       -2.56498224       -2.60024747
 C           -2.90187034       -2.39320912       -1.03160896
 C           -3.65970501       -1.17279241       -1.25891040
 C           -1.88230615       -2.48119053       -2.05463719
 C           -3.09399030       -0.50184632       -2.40656605
 C           -2.07260644       -1.36951087       -2.97561959
 C           -3.03840797        1.57095141       -1.15179923
 C           -2.65417220        2.91145865       -1.05548874
 C           -1.84806320        3.51733802       -2.09618917
 C           -2.85745492        0.86634586       -2.35843213
 C           -0.10596825        2.68564619       -3.41603414
 C           -1.55201166        2.74651780       -3.27959498
 C           -2.05214226        1.39086567       -3.36590861
 C            1.35887555        0.73112989       -3.24806765
 C            1.48325057       -0.64230358       -3.41437998
 C            0.27347048       -1.44321191       -3.51179379
 C           -0.96220185       -0.79877818       -3.60357293
 C            0.24402601        1.33531749       -3.81599608
 C           -0.98777502        0.56381531       -3.91009484
