   70
C70 / DATE: 7/ 1/2024 / Origin: Program Fullerene / C70 from database
 C            1.46837195        0.04831196        4.81615698
 C            0.70090872       -1.16149515        4.59036900
 C            1.59234132       -2.12891862        3.99684701
 C            2.69267790       -0.06055019        4.03738224
 C            2.80681933       -1.42739007        3.59425617
 C            2.66979877        0.98812489        3.03903533
 C            0.70511640        1.16001869        4.27749035
 C            1.56164528        1.86675642        3.35934502
 C           -0.49914900       -0.79695963        3.86292780
 C           -0.54247526        0.65226019        3.75425888
 C           -0.89994245       -1.54731652        2.76160059
 C            1.13273072       -2.86624978        2.83742020
 C           -0.14685212       -2.64373224        2.32141870
 C            2.99560122       -1.68593055        2.17907966
 C            2.24723116       -2.89573205        1.91224627
 C            2.90171373        0.69725734        1.68869350
 C            2.92789516       -0.63867648        1.25328400
 C            2.59287098        1.70273969        0.76637424
 C            0.97876193        2.51844933        2.29097022
 C            1.81072156        2.77036598        1.21995341
 C           -1.03441167        1.21033525        2.57539393
 C           -0.37480999        2.30285779        1.99985089
 C           -1.79699477       -0.96486473        1.87750045
 C           -1.84900277        0.42891608        1.76610786
 C           -2.36006089       -1.75048099        0.88282798
 C           -0.43517605       -3.18293751        1.06359775
 C           -1.64736137       -2.87139942        0.43801435
 C            1.97224211       -3.21396383        0.59900472
 C            0.62635481       -3.63993937        0.27740853
 C            2.61679232       -0.94345780       -0.07957170
 C            2.34081179       -2.26155708       -0.43484900
 C            2.58712390        1.39329822       -0.59540482
 C            2.32693791        0.08204230       -0.97931185
 C            2.40454923        2.42069686       -1.51370567
 C            1.35960123        3.70654816        0.31339215
 C            1.92993110        3.69377513       -1.01111114
 C           -0.86899774        2.84519950        0.80181671
 C           -0.08095406        3.80974932        0.16831932
 C           -2.43134341        1.00697890        0.64252111
 C           -1.82078519        2.12243478        0.05757903
 C           -3.36521477       -1.18169837        0.10608486
 C           -3.35331628        0.25812553       -0.08148172
 C           -3.75953754       -1.79515900       -1.14419437
 C           -1.86988364       -3.38465853       -0.84186584
 C           -2.96969989       -2.89279892       -1.64981217
 C            0.52771390       -3.55011637       -1.16417935
 C            1.47431889       -2.52233051       -1.57191631
 C           -0.73322451       -3.54965735       -1.72812217
 C            1.55059361       -0.17681438       -2.12150545
 C            1.02296654       -1.45513100       -2.34016544
 C            1.69677178        2.14604908       -2.75142829
 C            1.21330460        0.86315715       -2.99278139
 C            0.91727669        4.20229068       -1.91326769
 C           -0.35297968        4.17561218       -1.20287044
 C            0.81425087        3.27150459       -3.01702775
 C           -2.01876605        2.38104035       -1.31317620
 C           -1.26160569        3.35238107       -1.96492430
 C           -0.59352510        2.99492893       -3.20764665
 C           -3.51875875        0.51820637       -1.49679720
 C           -3.78315705       -0.75291551       -2.15662806
 C           -2.67237998        1.43499110       -2.10372013
 C           -2.41688828       -2.49229176       -2.93558389
 C           -0.97907157       -2.69489751       -2.87162465
 C           -0.13159141       -1.61481479       -3.11380352
 C           -2.92265921       -1.16881146       -3.25075531
 C            0.08306659        0.73109897       -3.79862003
 C           -0.92589603        1.78298664       -3.78369933
 C           -2.15873625        1.14634024       -3.36778804
 C           -0.62439809       -0.53613726       -3.83751565
 C           -2.05020747       -0.23604491       -3.79167365
