   70
C70 / DATE: 7/ 1/2024 / Origin: Program Fullerene / C70 from database
 C            1.26563870       -0.02247973        4.51229557
 C            2.49936396       -0.34319329        3.83344135
 C            2.46591690       -1.75626846        3.49627449
 C            0.45333415       -1.22976797        4.55575823
 C            1.11800911       -2.23533464        3.74553115
 C           -0.91173164       -0.85561863        4.23495850
 C            0.43537889        1.03812434        3.97905190
 C           -0.94086677        0.59055194        4.07547920
 C            0.83282251        1.74794374        2.84494254
 C            2.83498183        0.38227991        2.62615606
 C            2.03314653        1.43176914        2.18452947
 C            3.02186904       -1.90780523        2.16449110
 C            3.30022757       -0.57862062        1.64515233
 C            2.45530464       -2.84348225        1.31754318
 C            0.42073372       -2.86223243        2.71302238
 C            1.12859962       -3.36611191        1.62274969
 C           -1.63872913       -1.65570368        3.36299539
 C           -0.96250778       -2.70832135        2.61612491
 C           -2.62771528       -1.05098144        2.48527974
 C           -1.88238407        1.17076204        3.23692998
 C           -2.78294274        0.32705873        2.46507815
 C           -0.11820873        2.54589227        2.20025100
 C           -1.47331612        2.26910004        2.37629061
 C            0.26185463        3.30133387        1.09718719
 C            2.23030328        1.88687030        0.88211799
 C            1.53307033        3.01355208        0.46670404
 C            3.07199223       -0.29713570        0.30007533
 C            2.79483724        1.02004348       -0.06131483
 C            2.50670302       -2.61033784       -0.11246337
 C            2.77320481       -1.33081298       -0.59703737
 C            0.44515297       -3.58555234        0.35636623
 C            1.42278757       -3.37216274       -0.69849390
 C           -1.61588421       -2.82420856        1.31935127
 C           -2.62020279       -1.78155494        1.23041728
 C           -0.86151924       -3.12864678        0.19044725
 C           -2.76359099       -1.10353942        0.02662932
 C           -3.03736719        0.99311006        1.19884216
 C           -2.35323312        2.26900810        1.21837356
 C           -3.03970382        0.26896217        0.01406253
 C           -0.70440333        3.53114897        0.03483975
 C           -1.88501498        2.78968778        0.01774203
 C            1.41307000        3.32151429       -0.94840050
 C            0.04015637        3.73593738       -1.19727196
 C            2.78379514        1.34573696       -1.41156441
 C            2.07396738        2.52573701       -1.87221570
 C            2.41963988       -1.02122864       -1.91555636
 C            2.56986459        0.28337404       -2.37556980
 C            0.97596413       -3.01662281       -1.95734051
 C            1.61511908       -1.90174060       -2.63744623
 C           -1.27555194       -2.65805792       -1.06112875
 C           -2.31429687       -1.72129413       -1.13910157
 C           -0.45002505       -2.86738585       -2.16463064
 C           -2.65219615       -1.14750866       -2.36269243
 C           -2.93413796        0.96813172       -1.18687207
 C           -2.32900070        2.23726006       -1.18826972
 C           -3.06904810        0.24114724       -2.36697548
 C           -0.56692684        3.42534967       -2.40611039
 C           -1.88070686        2.81142433       -2.37878399
 C            1.43433322        2.20004629       -3.13671433
 C            1.68233980        0.79108380       -3.41311561
 C            0.19887888        2.75423705       -3.44573908
 C            0.65200778       -1.37636125       -3.59419500
 C           -0.61618491       -2.05484984       -3.35377214
 C           -1.79722237       -1.35400151       -3.52041274
 C            0.66089140       -0.01861747       -3.91056912
 C           -2.67767647        0.81806007       -3.63601435
 C           -2.05331814        2.12035090       -3.64019982
 C           -0.73562111        1.98156006       -4.24324779
 C           -1.76363159       -0.11427973       -4.27384204
 C           -0.49039389        0.56367153       -4.44042084
