   70
C70 / DATE: 7/ 1/2024 / Origin: Program Fullerene / C70 from database
 C            1.40453450        0.03533126        4.95952605
 C            0.61568873       -1.15721782        4.70621479
 C            1.44875416       -2.09083008        3.98678930
 C            2.63524566       -0.08127171        4.19561261
 C            2.68730511       -1.40996870        3.63453513
 C            2.69405738        1.04142903        3.28668922
 C            0.66532714        1.17421632        4.43839249
 C            1.50979371        1.86064493        3.49284027
 C           -0.63075440       -0.74189665        4.09475283
 C           -0.61352635        0.70273808        3.97031433
 C           -1.16460267       -1.46677514        3.03175184
 C            0.92106551       -2.68269699        2.77479714
 C           -0.40620730       -2.47259129        2.40550906
 C            2.87136880       -1.54835209        2.19976204
 C            1.93310371       -2.55473621        1.74735350
 C            3.12844360        0.85769997        1.97711723
 C            3.07234349       -0.42305859        1.39955700
 C            2.98040810        1.95994316        1.14737942
 C            0.93387450        2.44989229        2.37002296
 C            1.81523583        2.80674925        1.35749422
 C           -1.14725329        1.24460790        2.80834978
 C           -0.39357675        2.13939504        2.02648929
 C           -2.18597472       -0.85646226        2.30230219
 C           -2.18191809        0.54036907        2.20175911
 C           -2.84264342       -1.62214843        1.34719983
 C           -0.77627229       -2.87906542        1.12150195
 C           -2.10437745       -2.70954577        0.74215247
 C            1.50223471       -2.51453770        0.43097723
 C            0.21996257       -2.97298329        0.14146497
 C            2.85343872       -0.54943770        0.02130119
 C            2.12311726       -1.64440313       -0.46647773
 C            3.14931723        1.80578933       -0.27933407
 C            3.14395904        0.52605552       -0.81862905
 C            1.30333340        3.17305269        0.05369921
 C            2.34159533        2.84026330       -0.90329445
 C           -0.89668584        2.52717417        0.77269558
 C           -0.02123176        2.89203422       -0.25509504
 C           -2.88888433        1.17645733        1.19234492
 C           -2.22206259        2.23791910        0.46317866
 C           -3.63442539       -0.98230875        0.31201340
 C           -3.67661142        0.40239057        0.25142111
 C           -2.48360781       -2.78795833       -0.65779715
 C           -3.48072278       -1.75814295       -0.90917051
 C           -0.12180672       -3.14714748       -1.19320815
 C           -1.51018297       -3.05585627       -1.60824510
 C            1.77779882       -1.71730592       -1.82005522
 C            0.69661144       -2.50651141       -2.20842253
 C            2.96961169        0.39243038       -2.19113272
 C            2.24692412       -0.75510198       -2.70521011
 C            1.99334194        2.68829671       -2.23282682
 C            2.55003321        1.55765693       -2.95274655
 C           -0.38890558        2.72444132       -1.59740619
 C            0.58890805        2.77457730       -2.59493559
 C           -2.63048671        2.14655267       -0.92639537
 C           -3.60988863        1.07273914       -1.03562288
 C           -1.68572395        2.32652102       -1.93147997
 C           -3.52197473       -1.12020866       -2.14445647
 C           -3.67682662        0.32575124       -2.20504764
 C           -1.55120035       -2.38544539       -2.89816995
 C           -0.18510005       -2.03623140       -3.26613927
 C           -2.59228887       -1.51478249       -3.19199763
 C            1.38213380       -0.30105276       -3.78729405
 C            1.56925154        1.13054717       -3.93321759
 C            0.41137767        1.99464814       -3.80812522
 C            0.09635360       -0.82530686       -3.89804281
 C           -1.94441929        1.82270073       -3.20634001
 C           -2.95998482        0.79793869       -3.37410884
 C           -2.32387605       -0.34794389       -4.00804505
 C           -0.83563882        1.45243518       -4.06516186
 C           -0.94621126        0.01789435       -4.29163071
