   70
C70 / DATE: 7/ 1/2024 / Origin: Program Fullerene / C70 from database
 C            1.65382026        0.00633481        4.52377343
 C            0.84109271       -1.19073826        4.43645148
 C            1.31233640       -1.98507700        3.31166819
 C            2.65148560       -0.06628329        3.47516322
 C            2.48466163       -1.32581457        2.77083596
 C            2.57224337        1.15589417        2.69446273
 C            0.79283531        1.13861758        4.23013429
 C            1.36437224        1.84898723        3.10594204
 C           -0.54618794       -0.77256720        4.43926468
 C           -0.56421066        0.64622470        4.11114881
 C           -1.45700019       -1.59705031        3.80357283
 C            0.36588467       -2.52685917        2.44380466
 C           -0.94445993       -2.62700924        2.91067604
 C            0.62626860       -2.54862452        1.06140264
 C            2.67322934       -1.31241313        1.39923127
 C            1.87127589       -2.11487086        0.58532738
 C            2.84686618        1.06488838        1.33210972
 C            3.24758370       -0.17514970        0.84249014
 C            2.21604763        1.94980849        0.45013075
 C            0.52448378        2.32255486        2.11127743
 C            1.09835689        2.66310083        0.89335419
 C           -1.34965779        1.08309248        3.04455403
 C           -0.84947081        2.05258825        2.16080507
 C           -2.57671923       -0.98725637        3.11521644
 C           -2.47594893        0.33657538        2.69118827
 C           -2.00773872       -2.95694405        1.99070490
 C           -3.07431190       -1.98573156        2.18818014
 C           -0.39410634       -2.84005440        0.14424133
 C           -1.70792685       -2.99720575        0.58023349
 C           -0.19551497       -2.54949029       -1.20391098
 C            2.14074319       -2.12463548       -0.78909596
 C            1.10372695       -2.40191054       -1.68784009
 C            3.66838205       -0.25227347       -0.46998496
 C            3.26588937       -1.41849898       -1.22426934
 C            2.45672956        1.81048703       -0.92223973
 C            3.41527192        0.88755737       -1.32808499
 C            1.51316965        2.27681950       -1.84299197
 C            0.33068216        3.37632114       -0.01205132
 C            0.60525217        3.24163338       -1.42984198
 C           -1.67013350        2.55783387        1.14659100
 C           -1.10988579        3.38220897        0.17005219
 C           -3.27752013        0.76580631        1.63897200
 C           -2.90199772        1.95506840        0.89744150
 C           -3.53241688       -1.55301814        0.88190283
 C           -2.75378706       -2.26793303       -0.11263323
 C           -3.79112225       -0.20762575        0.68168852
 C           -1.28597545       -2.10977922       -1.96563095
 C           -2.41480010       -1.64698719       -1.30713853
 C           -1.09723024       -1.69120084       -3.26915110
 C            1.30663649       -2.28873524       -3.06513230
 C            0.18782037       -1.90562549       -3.90098703
 C            3.41979140       -1.06367623       -2.62007073
 C            3.40016060        0.39238259       -2.69118901
 C            2.45489349       -1.56261011       -3.56860287
 C            1.29122911        1.58361858       -3.04353764
 C            0.55083731       -0.67203632       -4.58169401
 C            2.30161212        0.76990699       -3.55554201
 C            1.94807094       -0.41875844       -4.30954660
 C           -1.55907554       -0.36221530       -3.61831095
 C            0.00024872        1.51179631       -3.59225286
 C           -0.42046532        0.33071108       -4.19402407
 C           -0.65141277        3.36363366       -2.13477976
 C           -1.71645696        3.43909559       -1.14821405
 C           -0.99872993        2.33670894       -3.09211854
 C           -3.35435601        1.76567024       -0.47473189
 C           -3.60848751        0.34922220       -0.64523974
 C           -2.88736375       -0.36119714       -1.60387308
 C           -2.36167261        0.32710276       -2.70705331
 C           -2.72425703        2.45598881       -1.49633329
 C           -2.24359096        1.71961571       -2.65589467
