   70
C70 / DATE: 7/ 1/2024 / Origin: Program Fullerene / C70 from database
 C            1.37382345       -0.13074058        5.63510177
 C            0.53686207       -1.30125756        5.49034710
 C            1.16003263       -2.16428867        4.50084997
 C            2.50147478       -0.28671112        4.73062421
 C            2.24258645       -1.43613996        3.88039545
 C            2.69729779        0.99334562        4.10257864
 C            0.60937395        1.01244252        5.16358620
 C            1.51386849        1.80735435        4.37423878
 C           -0.73193581       -0.86595376        4.93006246
 C           -0.59961899        0.51541390        4.52937983
 C            0.10575311       -2.62719753        3.64075607
 C           -1.07467735       -1.81517128        3.90552958
 C            0.39338451       -2.86874669        2.30594785
 C            2.23537430       -1.28950456        2.48522997
 C            1.44660206       -2.15317489        1.70440695
 C            2.90013511        1.02931671        2.67081419
 C            2.77843233       -0.13430051        1.90402560
 C            1.05278268        2.30287439        3.09479430
 C            2.18995626        2.20037629        2.21403760
 C           -0.87958352        0.85249849        3.19783295
 C           -0.18568038        1.90726994        2.58600305
 C           -1.77628579       -1.37286691        2.79215316
 C           -1.64399583       -0.02568938        2.40672030
 C           -0.72189117       -3.13707984        1.53481193
 C           -1.89457392       -2.31977057        1.79104027
 C           -0.57484690       -3.24483989        0.10952656
 C            1.49100485       -2.04722778        0.30235312
 C            0.60592606       -2.81270401       -0.47113044
 C            2.68418486        0.04674329        0.52049577
 C            2.18402658       -0.97980152       -0.28709300
 C            1.93768272        2.27120348        0.86514728
 C            2.59997587        1.36222332        0.05998809
 C           -0.41515964        2.17470784        1.23480055
 C            0.65777035        2.63286677        0.46682714
 C           -1.97874462        0.35351726        1.09391812
 C           -1.48046349        1.55753012        0.58403969
 C           -2.43468386       -1.93143578        0.51519488
 C           -1.83005247       -2.80396164       -0.46829446
 C           -2.53999198       -0.58424187        0.21399220
 C           -1.82095198       -2.37620190       -1.78233311
 C            0.60522704       -2.68489870       -1.85439109
 C           -0.68085359       -2.63727570       -2.53508105
 C            2.12204244       -0.77982191       -1.67507108
 C            1.45386924       -1.69404618       -2.47741904
 C            2.52856892        1.59938269       -1.29825767
 C            2.42140514        0.47309725       -2.19933847
 C            0.46657456        2.83825060       -0.89364096
 C            1.54534435        2.57114216       -1.73588994
 C           -1.73491315        1.90143009       -0.74757287
 C           -0.81946723        2.72748216       -1.41115443
 C           -2.71712853       -0.24518561       -1.12584054
 C           -2.56781436       -1.24566755       -2.09859825
 C           -2.59020914        1.09010264       -1.49313527
 C           -2.68347708       -0.90770804       -3.44080433
 C           -0.49462893       -1.92898232       -3.78730495
 C            0.79031110       -1.24517339       -3.70058672
 C           -1.58082018       -1.25375970       -4.32905011
 C            1.73057440        0.94852276       -3.39485038
 C            1.30094476        2.31972122       -3.13859468
 C            0.89525042        0.08728883       -4.10554844
 C           -1.00352821        3.00755287       -2.76388560
 C            0.10386553        2.75777224       -3.67885253
 C           -2.94861973        1.47054705       -2.78340166
 C           -3.12498647        0.42966428       -3.77828090
 C           -2.21748471        2.55254836       -3.40891853
 C           -1.31712161       -0.09927636       -5.16116879
 C           -0.07894207        0.62925738       -4.95038818
 C           -0.42441933        2.03450858       -4.81450797
 C           -2.42436961        0.82580938       -4.98620160
 C           -1.87036754        2.14703885       -4.76096454
