   70
C70 / DATE: 7/ 1/2024 / Origin: Program Fullerene / C70 from database
 C            1.15134017        0.14074077        4.86113116
 C            2.45005665        0.01095102        4.23775769
 C            2.53846094       -1.33596481        3.70889006
 C            0.35492277       -1.01910580        4.47595670
 C            1.19366458       -1.88807555        3.68557862
 C           -0.87531822       -0.53842854        3.89179546
 C            0.36913320        1.32279537        4.57596260
 C           -0.95706479        0.87657447        4.18937149
 C            0.82493905        2.25174509        3.55240612
 C            2.81846261        0.92211205        3.16649666
 C            2.00842514        2.01411828        2.84793809
 C            3.27294582       -1.27480360        2.45698262
 C            3.38904527        0.12774128        2.08681208
 C            2.93596455       -2.18608779        1.47393841
 C            0.71843999       -2.39923355        2.48145072
 C            1.67129222       -2.89293376        1.60354586
 C           -1.24208673       -0.96554589        2.61767595
 C           -0.52205273       -1.97605255        1.96879017
 C           -2.10079510       -0.16483075        1.87220394
 C           -1.42122902        1.75983418        3.14234988
 C           -0.35877517        2.69546203        2.82971595
 C           -2.11642003        1.22031458        2.07719979
 C           -0.23246368        3.12733969        1.50977371
 C            2.16797437        2.60487279        1.59878442
 C            1.04953300        3.30777126        0.99296948
 C            3.16835045        0.52802068        0.76663279
 C            2.83307528        1.85559658        0.54209388
 C            3.02748993       -1.77539510        0.08842163
 C            2.91726527       -0.42749559       -0.22720751
 C            1.26642576       -3.28226993        0.27884258
 C            2.23549235       -2.72953884       -0.65398999
 C           -0.91295921       -2.36966057        0.67328321
 C           -0.07469123       -3.21676701       -0.06688390
 C           -2.64709762       -0.66769077        0.69651839
 C           -1.99235886       -1.72064103        0.03999746
 C           -3.49790925        0.17614294       -0.01308018
 C           -2.32281437        2.04170746        0.98059011
 C           -1.30613872        2.93807731        0.62744359
 C           -3.23632387        1.60071483        0.03424668
 C           -1.16415120        3.34030844       -0.70082117
 C            1.25970816        3.28224051       -0.44445354
 C            2.23702412        2.24237440       -0.72003707
 C            0.16435761        3.40037533       -1.28222659
 C            2.26591481       -0.06838660       -1.41618297
 C            1.94188339        1.27122227       -1.66933958
 C            1.77190570       -2.39322825       -1.91423579
 C            1.89466271       -1.06177993       -2.33619320
 C           -0.35419074       -3.45511646       -1.40460746
 C            0.69085894       -3.14307932       -2.36456519
 C           -2.37152942       -2.08602678       -1.26469211
 C           -1.60081870       -2.99914145       -1.96984449
 C           -3.88029640       -0.15449152       -1.36287450
 C           -3.24658110       -1.28472195       -1.99619641
 C           -3.16349734        2.08220868       -1.33167780
 C           -2.06562912        2.82855024       -1.72003165
 C           -3.63234796        1.01595378       -2.19495616
 C            0.13488977        2.62198332       -2.50814194
 C            1.05502730        1.59394417       -2.69821420
 C           -1.25797959        2.39037889       -2.85177323
 C            1.34067197       -0.67585961       -3.55769499
 C            0.79466945        0.65998193       -3.69015632
 C            0.06363547       -2.81425394       -3.62295677
 C           -1.37172272       -2.78109157       -3.39305935
 C            0.44606206       -1.57841108       -4.26593546
 C           -2.87228360       -0.86254365       -3.33684524
 C           -2.80476197        0.59055854       -3.31011649
 C           -1.59007130        1.23407249       -3.55788632
 C           -0.56592991        0.53650819       -4.19569307
 C           -1.89394500       -1.57577046       -4.01179808
 C           -0.77173617       -0.84886982       -4.57917921
