   70
C70 / DATE: 7/ 1/2024 / Origin: Program Fullerene / C70 from database
 C            1.11220267       -0.12662758        4.58267699
 C            2.34793788       -0.51440781        3.93776258
 C            2.15370256       -1.83915359        3.36439382
 C            0.24302478       -1.28940263        4.57290783
 C            0.77246684       -2.21306936        3.58402773
 C           -1.11103560       -0.80686495        4.40766245
 C            0.35660352        0.97936385        4.01979333
 C           -1.04304868        0.61806678        4.11440312
 C            0.82053762        1.59913502        2.85946552
 C            2.86478630        0.33219200        2.88317867
 C            2.17457722        1.48536933        2.52272748
 C            2.65631081       -1.80405590        2.00564829
 C            3.33470140       -0.53702124        1.82026121
 C            1.86220208       -2.27135110        0.97201949
 C           -0.01942712       -2.56519087        2.49104329
 C            0.57301386       -2.75653204        1.23189241
 C           -1.93170226       -1.41165851        3.37999473
 C           -1.40882980       -2.43275402        2.59149442
 C           -1.90432418        0.87077703        2.97544040
 C           -2.65206773       -0.34186537        2.71339331
 C           -0.09931424        2.06183562        1.90451137
 C           -1.40713812        1.57364576        1.89211646
 C            0.35608409        2.78815882        0.80184516
 C            2.63893209        2.15230257        1.39978364
 C            1.72543165        2.98353520        0.64722399
 C            3.41709748       -0.00112174        0.53733539
 C            3.40743328        1.38902730        0.42923259
 C            2.21089710       -1.91657430       -0.32572597
 C            2.97837904       -0.76645457       -0.54948722
 C            1.57129534       -2.55085329       -1.38116989
 C           -0.19954298       -3.24779390        0.17404990
 C            0.30812277       -3.21712079       -1.12679646
 C           -2.19651930       -2.84941680        1.52953399
 C           -1.56384769       -3.43427495        0.36444521
 C           -3.11268394       -0.58757545        1.42207588
 C           -3.20555020       -1.92429731        1.04144895
 C           -2.07763250        1.47963242        0.68199316
 C           -2.92671200        0.38901981        0.43015305
 C           -0.49325158        3.00752710       -0.29027442
 C           -1.73353116        2.35531757       -0.34015780
 C            0.02876729        3.62938110       -1.42792004
 C            2.28542835        3.11641935       -0.68699782
 C            3.22389079        2.01750098       -0.86815488
 C            1.43952317        3.47625526       -1.72348404
 C            3.05757904       -0.22615669       -1.83349951
 C            3.13822283        1.21618452       -1.99809209
 C            1.47384940       -1.89156648       -2.67138817
 C            2.20950649       -0.74317297       -2.89478785
 C           -0.57452354       -2.92024405       -2.24917545
 C            0.07934936       -1.92027088       -3.07158470
 C           -2.47364190       -3.23791120       -0.75202551
 C           -3.46362219       -2.25442847       -0.34141907
 C           -1.93638794       -2.82139634       -2.03451457
 C           -3.36018483        0.13290183       -0.88046083
 C           -3.45595119       -1.18634614       -1.31315062
 C           -2.62512077       -1.60475800       -2.42982660
 C           -2.48446883        2.32754529       -1.50886294
 C           -3.14403434        1.09108016       -1.86476353
 C           -0.66635266        3.54190853       -2.69502766
 C           -1.94598812        2.87543353       -2.73724371
 C            1.53180281        2.78404033       -3.00103684
 C            2.24569534        1.59467609       -3.08265191
 C            1.56899092        0.38934577       -3.53960450
 C            0.21925653        2.85144478       -3.62057173
 C           -0.57697918       -0.72513696       -3.37279421
 C           -1.95984065       -0.61227413       -3.14696988
 C           -2.54210381        0.64994322       -3.11393291
 C           -1.83816338        1.77523786       -3.68344151
 C            0.18513430        0.40059597       -3.72506248
 C           -0.43921457        1.61429961       -4.00387850
