   70
C70 / DATE: 7/ 1/2024 / Origin: Program Fullerene / C70 from database
 C            1.22931195       -0.03704863        4.33849526
 C            2.48360016       -0.32598317        3.68599467
 C            2.39508355       -1.66194614        3.11604886
 C            0.38120115       -1.21157542        4.21195700
 C            1.04260226       -2.14281001        3.32286341
 C           -0.95185558       -0.76102247        3.86314575
 C            0.46203706        1.10729080        3.88984264
 C           -0.92871505        0.69295977        3.79752506
 C            0.97318451        1.96801550        2.91986540
 C            2.93721230        0.56194973        2.63704823
 C            2.22423218        1.72092046        2.32787485
 C            2.90890840       -1.60105571        1.75749732
 C            3.42908369       -0.26564791        1.54810608
 C            2.18163062       -2.19688323        0.73454642
 C            0.33801819       -2.62825545        2.22927099
 C            1.03389949       -2.92052069        1.05478385
 C           -1.67374553       -1.45804021        2.90160366
 C           -1.05427667       -2.49368566        2.19258718
 C           -2.78550592       -0.82614397        2.35495902
 C           -1.77436661        1.34530460        2.90030279
 C           -2.81806125        0.62824533        2.31922793
 C            0.08064354        2.85536959        2.32370405
 C           -1.33715745        2.52345410        2.29910749
 C            0.41214292        3.50483545        1.06900922
 C            2.58346570        2.38589901        1.15680203
 C            1.64800430        3.28028875        0.49714901
 C            3.41804566        0.25955447        0.26340720
 C            3.28017607        1.63953862        0.12144796
 C            2.37445169       -1.75973422       -0.57929658
 C            3.08809010       -0.56981767       -0.81060572
 C            1.71989322       -2.42685441       -1.62811154
 C            0.39613927       -3.63651613        0.05516330
 C            0.69549090       -3.32219285       -1.32821109
 C           -1.76758873       -3.15806589        1.19798952
 C           -1.03377332       -3.85814218        0.16023892
 C           -3.37718129       -1.32316601        1.12411537
 C           -2.88759954       -2.48826937        0.55951572
 C           -3.34997078        1.02974571        1.02503286
 C           -3.64204108       -0.17936142        0.26948924
 C           -1.86737443        2.92369451        1.00352844
 C           -0.77193655        3.48825458        0.22938646
 C           -2.81865334        2.13368461        0.36147122
 C           -0.67446490        3.17918274       -1.12459656
 C            1.73247036        3.04129684       -0.93384528
 C            2.89233688        2.19854837       -1.16289906
 C            0.56865517        2.82745605       -1.67410493
 C            3.16852412       -0.03691154       -2.09335003
 C            2.91085104        1.38059599       -2.27836436
 C            1.71012408       -1.87272921       -2.90401028
 C            2.55169163       -0.73710713       -3.19659117
 C            0.42607714       -1.66179840       -3.55346786
 C           -0.56884730       -3.18116964       -2.03465047
 C           -1.63552845       -3.51611258       -1.11881781
 C           -2.66364173       -2.52950950       -0.87530466
 C           -0.72139301       -2.10072996       -2.89554140
 C           -3.31348858       -0.22144876       -1.08160400
 C           -2.64188607       -1.33854331       -1.59730802
 C           -1.79257769       -1.21354595       -2.71135564
 C           -2.90925518        2.18851338       -1.02981279
 C           -1.85074695        2.84207616       -1.78217944
 C           -3.27764372        0.98707552       -1.76253691
 C           -1.87403914       -0.07993125       -3.51649922
 C           -1.79187222        2.22415434       -3.08736587
 C           -2.65556621        1.05220383       -3.06617114
 C            0.65132038        2.14219018       -2.89676242
 C            1.83633201        1.49586955       -3.24668638
 C            1.76084413        0.22585533       -3.94762137
 C            0.45395281       -0.35819220       -4.19595561
 C           -0.50573288        1.80980749       -3.59737197
 C           -0.66324148        0.45663688       -4.10910482
