   70
C70 / DATE: 7/ 1/2024 / Origin: Program Fullerene / C70 from database
 C            1.28768610       -0.12592302        4.21274142
 C            2.38986732       -0.31816165        3.29095632
 C            2.21546232       -1.61582183        2.65154220
 C            0.45147207       -1.31217214        4.15230214
 C            0.93513854       -2.14615609        3.06589522
 C           -0.93076473       -0.88115485        4.12296219
 C            0.43430848        1.03325452        4.04849856
 C           -0.93167116        0.55875746        3.89291533
 C            0.87777315        2.07975064        3.25743282
 C            2.84261297        0.75173978        2.52052834
 C            2.14767874        1.96535376        2.54685259
 C            3.64269035        0.45841991        1.41895410
 C            2.62902976       -1.75976451        1.33476435
 C            3.63756376       -0.90291634        0.91165536
 C            1.74899198       -2.30990491        0.38868255
 C            0.03484897       -2.57960945        2.10143455
 C            0.44186272       -2.66639895        0.76613365
 C           -1.83769050       -1.66023991        3.42290701
 C           -1.32951334       -2.57483245        2.40576874
 C           -3.00432300       -1.00454998        2.86878958
 C           -1.75446317        1.09639665        2.89749231
 C           -2.91028141        0.40832389        2.54810803
 C           -0.06290878        2.72906264        2.36432870
 C           -1.26240421        2.09197346        2.04790387
 C            2.03414057        2.75521189        1.32747592
 C            0.71410681        3.36244212        1.31556712
 C            3.61719993        1.33798979        0.26192710
 C            2.59179458        2.26717694        0.14860085
 C            3.98806447       -0.85006631       -0.48719257
 C            3.99680472        0.54897689       -0.88806054
 C            2.13100041       -2.37827650       -0.96315530
 C            3.16468100       -1.57227452       -1.42848491
 C            1.22921746       -2.84680942       -1.91239735
 C           -0.50893558       -2.96367993       -0.20959923
 C           -0.09771788       -3.25001883       -1.49958424
 C           -2.30282065       -2.62359533        1.32753933
 C           -3.37567012       -1.71145073        1.65767891
 C           -1.84606283       -2.65285728        0.01961940
 C           -3.47841246        0.59292307        1.22796731
 C           -3.75347070       -0.72441485        0.66924624
 C           -1.87348950        2.34155005        0.81031981
 C           -2.96625340        1.57549892        0.38848801
 C            0.10632722        3.62438871        0.10314618
 C           -1.28212447        3.24157038       -0.07818581
 C            1.90611033        2.42425590       -1.06625708
 C            0.80936977        3.28464912       -1.12030120
 C            3.21100900        0.66346805       -2.09516249
 C            2.90336418       -0.68383831       -2.54765438
 C            2.22667420        1.63841147       -2.18554010
 C            1.09902748       -2.11815214       -3.16737558
 C            1.75928536       -0.89831992       -3.31166966
 C           -1.00930490       -2.97390323       -2.59519563
 C           -0.27054973       -2.26200689       -3.62506831
 C           -2.59154391       -2.02645006       -0.98584431
 C           -3.43086636       -0.95273891       -0.66398405
 C           -2.22251393       -2.22726943       -2.31354100
 C           -3.24580935        1.46213517       -0.97334706
 C           -3.49344447        0.13972995       -1.52285881
 C           -1.49825193        3.09152324       -1.50603962
 C           -0.19475240        3.11303224       -2.15485173
 C           -2.47756755        2.21578812       -1.94837532
 C            1.32205263        1.52520458       -3.23736646
 C            1.07201897        0.21105263       -3.81305243
 C            0.06748709        2.25521707       -3.21186864
 C           -1.02368849       -1.07545408       -3.97760958
 C           -2.28027235       -1.11277548       -3.24460523
 C           -2.87831483        0.07204923       -2.83737163
 C           -2.21721277        1.34468492       -3.08504788
 C           -0.34818286        0.12835060       -4.13107480
 C           -0.97546973        1.37164449       -3.70940319
