   70
C70 / DATE: 7/ 1/2024 / Origin: Program Fullerene / C70 from database
 C            1.67715970       -0.01224025        4.69735419
 C            0.84413405       -1.18112900        4.49074062
 C            1.34243710       -1.89382412        3.32323798
 C            2.68043798       -0.00120273        3.65151156
 C            2.53991489       -1.21387552        2.86604546
 C            2.58424030        1.26417524        2.94972410
 C            0.83953122        1.15935894        4.51278958
 C            1.35133515        1.90465031        3.37282159
 C           -0.53911600       -0.74278748        4.49535829
 C           -0.54103725        0.71607421        4.48802211
 C           -1.43816001       -1.42931703        3.69087315
 C            0.42867982       -2.36085002        2.38282349
 C           -0.92175420       -2.38189117        2.71846650
 C            0.79436649       -2.42110755        1.03536906
 C            2.77399703       -1.11784437        1.50123457
 C            2.03429598       -1.91031463        0.62369532
 C            2.88180271        1.26646804        1.59805642
 C            3.30975745        0.07215393        1.02018320
 C            2.22510066        2.18503201        0.78739561
 C            0.45748516        2.36148144        2.40142492
 C            0.89338498        2.49069504        1.07577773
 C           -1.42820911        1.39343856        3.66216511
 C           -0.90462855        2.33578341        2.68108150
 C           -2.53261266       -0.71208821        3.05561607
 C           -2.52400003        0.67186426        3.03544023
 C           -1.91052866       -2.50328428        1.66854285
 C           -2.88063335       -1.43254936        1.84500026
 C           -0.13828693       -2.85220325        0.08542703
 C           -1.50555648       -2.81800248        0.37922008
 C            0.27683412       -3.06847604       -1.22419307
 C            2.36588975       -1.88456435       -0.73560610
 C            1.55370181       -2.53467065       -1.65662101
 C            3.73850248        0.10741910       -0.29667232
 C            3.27265890       -0.93227266       -1.19980958
 C            2.70756632        2.35971647       -0.50086063
 C            3.64916863        1.37346198       -0.99995623
 C            1.77464026        2.65350961       -1.57029390
 C           -0.03712880        2.61400233        0.02761516
 C            0.40777212        2.63837520       -1.30351774
 C           -1.85454286        2.40244329        1.59402305
 C           -2.85025873        1.36098514        1.80152384
 C           -1.41034261        2.64227539        0.30166362
 C           -3.33135921       -0.75009674        0.71494364
 C           -3.31296213        0.65390362        0.69224901
 C           -2.41819050       -2.57090214       -0.64135776
 C           -3.35056681       -1.46648102       -0.48213855
 C           -0.66910602       -2.90966043       -2.31734889
 C           -1.99240120       -2.61092635       -2.02737099
 C            1.37702239       -1.95983898       -2.98338677
 C            0.00730268       -2.22086906       -3.40458922
 C            3.06910455       -0.32891933       -2.50956014
 C            3.32110987        1.09599585       -2.38330897
 C            2.27746537        2.01825122       -2.78037944
 C            2.00207054       -0.75212939       -3.29685268
 C            1.36670768        1.59097964       -3.72985933
 C            1.35282209        0.18317266       -4.10623111
 C           -0.48999978        2.42378219       -2.35557924
 C           -0.01631632        1.99924146       -3.59602031
 C           -2.31217160        2.38270743       -0.72172809
 C           -3.29737703        1.32959236       -0.52693617
 C           -1.84864774        2.31488382       -2.08954102
 C           -3.44661349       -0.77887798       -1.75595888
 C           -2.66649790       -1.52961359       -2.73037300
 C           -3.43060031        0.60538993       -1.77697063
 C           -2.64028754        1.30402577       -2.77754544
 C           -0.67826593       -1.27784543       -4.16021100
 C            0.02919759       -0.10441083       -4.63136497
 C           -0.80697483        1.05774784       -4.37029211
 C           -2.01393847       -0.86048660       -3.76013150
 C           -2.06852478        0.59251534       -3.82485010
