   70
C70 / DATE: 7/ 1/2024 / Origin: Program Fullerene / C70 from database
 C            1.32059519        0.16280453        5.04141546
 C            2.55525919        0.16944833        4.27841766
 C            2.63535859       -1.09228032        3.56069166
 C            0.55992075       -1.00971267        4.63866186
 C            1.35544867       -1.75671663        3.67586090
 C           -0.76673575       -0.56992355        4.24247519
 C            0.43930950        1.31272857        4.96977576
 C           -0.86550458        0.84975145        4.52300587
 C            0.81522322        2.44144159        4.13757366
 C            2.81060640        1.23706038        3.32160228
 C            1.96600882        2.33748940        3.25220560
 C            3.13803482       -0.81535160        2.23250689
 C            3.27342117        0.62097007        2.09125078
 C            2.61541727       -1.51247575        1.15190689
 C            0.73622171       -2.21024798        2.51454109
 C            1.47293276       -2.30710466        1.32705632
 C           -1.28588766       -1.04894709        3.04598798
 C           -0.64998112       -2.12526019        2.43580210
 C           -2.06848130       -0.20468704        2.25534566
 C           -1.31695089        1.73147218        3.46138311
 C           -0.33622951        2.78769519        3.32109538
 C           -1.84043643        1.16926934        2.30277084
 C            1.56587046        2.84227435        1.95098615
 C            0.13935072        3.09958151        1.98663419
 C            2.94713371        1.17822961        0.85768850
 C            2.08885089        2.28522187        0.78895648
 C            2.89397341       -1.01730339       -0.11732517
 C            3.07096844        0.36380582       -0.27117296
 C            2.55578622       -1.80948037       -1.20548992
 C            0.86500547       -2.88322044        0.20271968
 C            1.48274779       -2.77103525       -1.04203459
 C           -1.28931639       -2.73439648        1.37104612
 C           -0.49020727       -3.20533252        0.25354608
 C           -2.67094968       -0.73399415        1.11500886
 C           -2.45650373       -2.07862700        0.81643969
 C           -3.03647889        0.13244862        0.08489741
 C           -1.72097621        1.86360800        1.09996760
 C           -0.61415372        2.69081071        0.89114942
 C           -2.39553362        1.37071744       -0.01110838
 C            1.40147776        2.51825533       -0.40243635
 C            0.00960415        2.66185015       -0.35680133
 C            2.88005531        0.95507359       -1.51540256
 C            2.00542523        2.10719669       -1.57972485
 C            2.44770740       -1.22926150       -2.53176525
 C            2.62700898        0.13600222       -2.68758814
 C            0.67009500       -2.73440763       -2.25011251
 C            1.35623117       -1.89980053       -3.22176714
 C           -1.30783985       -3.08992414       -0.94824259
 C           -2.59511503       -2.54122377       -0.55307878
 C           -0.71748520       -2.68143497       -2.14192526
 C           -3.64857262       -0.40325596       -1.04603759
 C           -3.28948740       -1.75169484       -1.45235702
 C           -3.73032464        0.40328504       -2.25174105
 C           -2.06055520        1.87094809       -1.26733862
 C           -0.76499474        2.34968296       -1.47780583
 C           -2.88422919        1.57469729       -2.34539234
 C            1.21851137        2.00461920       -2.78981268
 C            1.73654559        0.88371143       -3.55935410
 C           -0.15428000        2.20987810       -2.73025419
 C            0.60886947       -1.21177327       -4.16736978
 C            0.87228463        0.20191841       -4.40605393
 C           -1.46872946       -1.97157890       -3.08683010
 C           -2.80425080       -1.66197329       -2.81562677
 C           -3.39946241       -0.45971397       -3.37330758
 C           -0.83131276       -1.39802832       -4.19032737
 C           -2.33312427        1.60410981       -3.68355418
 C           -0.91467613        1.85089388       -3.84085825
 C           -0.39549217        0.83053579       -4.73662268
 C           -2.63778424        0.32851342       -4.31910406
 C           -1.39521836       -0.21783222       -4.82464921
