   70
C70 / DATE: 7/ 1/2024 / Origin: Program Fullerene / C70 from database
 C            1.35035397       -0.13314209        4.35969013
 C            2.61771960       -0.44632346        3.74469630
 C            2.56022743       -1.82327458        3.27541056
 C            0.49522573       -1.30656153        4.26130912
 C            1.22893982       -2.33629227        3.54881497
 C           -0.79770312       -0.87416411        3.74795104
 C            0.59859600        0.99340246        3.85226459
 C           -0.78612620        0.57395718        3.72138982
 C            1.13851258        1.82183851        2.86894801
 C            3.07308229        0.36946687        2.63445490
 C            2.28366424        1.42336815        2.16101549
 C            3.05575294       -1.83617694        1.90750675
 C            3.67160964       -0.54348941        1.67871837
 C            2.27536954       -2.40988533        0.90341309
 C            0.57435697       -3.05267525        2.55856297
 C            1.22201223       -3.23714136        1.26885115
 C           -1.38084617       -1.56234677        2.68779144
 C           -0.82809449       -2.77472824        2.28947042
 C           -2.23409917       -0.87937002        1.81517329
 C           -1.58419628        1.23339503        2.79911695
 C           -2.46389324        0.49241858        2.01069325
 C            0.27535731        2.74886658        2.30045840
 C           -1.15348771        2.47684951        2.34207432
 C            0.57821880        3.32113809        1.00549246
 C            2.52292754        1.90754517        0.86577924
 C            1.69439138        2.88612607        0.30309917
 C            3.82785639       -0.11183761        0.37759367
 C            3.45853963        1.25305854        0.06322696
 C            2.34293848       -1.90545989       -0.40133970
 C            3.29715649       -0.93492086       -0.69575213
 C            1.32102547       -2.17673325       -1.32677706
 C            0.17877129       -3.51822403        0.31021526
 C           -1.10129583       -3.27208584        0.95847994
 C            0.32779129       -3.11923588       -1.00957793
 C           -2.73702804       -1.53534897        0.67850632
 C           -2.11440728       -2.69506463        0.20494729
 C           -3.69036982       -0.91106177       -0.12220147
 C           -3.31741259        1.18694422        1.16035743
 C           -4.02479578        0.47563265        0.11980575
 C           -1.75760452        3.06006037        1.15573510
 C           -0.67706246        3.49915183        0.28981133
 C           -2.86465114        2.44527588        0.59426092
 C           -0.71285431        3.22100913       -1.07358835
 C            1.73124483        3.12975911       -1.07246621
 C            0.47689987        3.35132572       -1.77808378
 C            3.32731937        1.30802109       -1.37645218
 C            3.09637686       -0.05840526       -1.83238720
 C            2.59303215        2.33880590       -1.93517880
 C            1.26039474       -1.45223123       -2.53423271
 C            2.05590979       -0.31748352       -2.71449467
 C            0.22486751       -1.67697468       -3.44043158
 C           -0.81329494       -3.20936510       -1.79633894
 C           -2.09800944       -2.95119349       -1.16562253
 C           -0.82555019       -2.61039952       -3.10654064
 C           -3.62539409       -1.08191325       -1.56171011
 C           -2.89086577       -2.14023753       -2.07414064
 C           -2.09889971       -1.92487652       -3.27348493
 C           -3.82252680        1.20440410       -1.12570526
 C           -2.92720707        2.30791004       -0.84888407
 C           -1.75853687        2.44514042       -1.59490014
 C           -3.44449894        0.24263648       -2.13704302
 C           -0.41019397       -0.53696267       -4.07730595
 C           -1.80647210       -0.56309967       -3.68208912
 C           -1.55822221        1.64171724       -2.73108040
 C           -2.33122490        0.49050785       -2.93510357
 C            0.59055786        2.76674321       -3.09427503
 C            1.87324582        2.08498031       -3.16887862
 C            1.61037362        0.70957741       -3.54729564
 C           -0.42976993        1.83421836       -3.52547667
 C            0.25597558        0.67343447       -4.06624712
