   70
C70 / DATE: 7/ 1/2024 / Origin: Program Fullerene / C70 from database
 C            1.21253433        0.10956422        4.40271466
 C            2.52049582       -0.16124272        3.84875894
 C            2.56195639       -1.57254212        3.51695684
 C            0.40036223       -1.08585825        4.23079295
 C            1.19556358       -2.06229107        3.51966702
 C           -0.86387603       -0.67881966        3.66066490
 C            0.45955293        1.22297272        3.86555482
 C           -0.89871517        0.76991383        3.62297808
 C            1.04201804        2.05911791        2.92221903
 C            2.93914560        0.57578169        2.67015138
 C            2.12971296        1.58811539        2.16860361
 C            3.32992103       -1.71427725        2.29868276
 C            3.51862150       -0.37740809        1.74022779
 C            2.97834870       -2.73979166        1.43686850
 C            0.69333148       -2.64314154        2.35523301
 C            1.60017546       -3.22157003        1.46342941
 C           -1.37386201       -1.36356393        2.57412742
 C           -0.59909440       -2.32535655        1.90844193
 C           -2.42269383       -0.76958374        1.89133533
 C           -1.63536164        1.40214234        2.61762901
 C           -2.43607608        0.62696875        1.76491251
 C            0.20262069        3.00919674        2.35769983
 C           -1.20170505        2.65871999        2.18796590
 C            0.63603177        3.70301789        1.16466074
 C            2.22366191        1.90008167        0.81108591
 C            1.65683332        3.07670922        0.35224608
 C            3.36208280       -0.18219217        0.36432643
 C            2.64330319        0.92717390       -0.10195886
 C            3.36216888       -2.60696240        0.04939329
 C            3.55910936       -1.26899833       -0.47824877
 C            1.19081266       -3.47492448        0.09130578
 C            2.33811107       -3.24871587       -0.75413436
 C           -1.01317382       -2.76789984        0.64581134
 C           -0.05390032       -3.02414274       -0.32762014
 C           -3.09640359       -1.55218359        0.96864532
 C           -2.32287416       -2.54046348        0.24336963
 C           -4.00593252       -0.92217642        0.03733298
 C           -2.97950893        1.21237400        0.61528736
 C           -3.91602305        0.51146388       -0.13532796
 C           -1.63103945        3.16492666        0.89582460
 C           -0.53188866        3.91599468        0.32923427
 C           -2.36786702        2.33649079        0.06292906
 C            1.22893744        3.16144447       -1.02598747
 C           -0.14924263        3.63473842       -1.03583004
 C            2.28072473        1.02609249       -1.46118774
 C            1.58906905        2.16295195       -1.92392043
 C            2.97930120       -1.25302820       -1.80015547
 C            2.15465958       -2.44513468       -1.93632173
 C            2.48121423       -0.06845774       -2.32150881
 C           -0.23198925       -2.52047415       -1.62901592
 C            0.87667843       -2.28611637       -2.45765024
 C           -2.58406367       -2.33606727       -1.16857708
 C           -3.79347291       -1.53920594       -1.26089194
 C           -1.50664847       -2.08143882       -2.01883630
 C           -4.01152853        0.77749677       -1.55687291
 C           -3.86167783       -0.49368224       -2.25346390
 C           -2.22339659        2.44338421       -1.32748788
 C           -1.05657638        2.99662575       -1.87378719
 C           -3.07876106        1.71886734       -2.15387504
 C            0.84920699        2.09511671       -3.10336642
 C           -0.55173456        2.48473453       -3.06589885
 C            1.66585811       -0.21098773       -3.43792534
 C            0.76291758       -1.35044376       -3.47403632
 C            0.96150665        0.93468937       -3.95150488
 C           -1.65344680       -1.19743881       -3.10043631
 C           -2.75800369       -0.34591206       -3.17591659
 C           -2.53849042        1.08101263       -3.33974338
 C           -1.31441428        1.50810365       -3.82842789
 C           -0.54276727       -0.86960212       -3.86682870
 C           -0.38033963        0.50611128       -4.31032359
