   70
C70 / DATE: 7/ 1/2024 / Origin: Program Fullerene / C70 from database
 C            1.37399099       -0.09344602        4.17083380
 C            2.47882977       -0.27975927        3.24493412
 C            2.41916144       -1.65186056        2.77077387
 C            0.53311302       -1.27560849        4.10390416
 C            1.11363664       -2.18107569        3.12741612
 C           -0.83542620       -0.83637004        3.91077743
 C            0.52061560        1.07019200        4.00669207
 C           -0.80002467        0.59050984        3.63356358
 C            1.03606764        2.16569664        3.33842846
 C            2.78847764        0.75248930        2.35941358
 C            2.31781233        2.02772784        2.66323910
 C            3.20868096        0.44561972        1.05526569
 C            2.94339538       -1.95277249        1.52912594
 C            3.50546344       -0.87902982        0.73096899
 C            2.16749887       -2.78720180        0.63152256
 C            0.28921846       -2.72387936        2.14081964
 C            0.80016221       -2.95269490        0.85865235
 C           -1.67098593       -1.62889487        3.14587932
 C           -1.08740385       -2.69456992        2.34028306
 C           -2.65160735       -0.97730516        2.30523554
 C           -1.42295494        1.08506529        2.48096797
 C           -2.40547428        0.31822617        1.85121679
 C            0.17278496        2.88486748        2.42385137
 C           -0.91051669        2.22108267        1.84755166
 C            2.37650404        3.06750437        1.66248264
 C            1.05066945        3.66377589        1.58187252
 C            3.20845684        1.42238648        0.04603662
 C            2.78308415        2.71553760        0.32050628
 C            3.27029904        1.04218621       -1.29160304
 C            3.46008457       -1.31345690       -0.65424266
 C            2.65068184       -2.52256829       -0.71110369
 C            3.35192127       -0.36117822       -1.65503889
 C            1.79813305       -2.73597900       -1.78222660
 C           -0.06300775       -3.16879569       -0.22580803
 C            0.45364378       -3.21623875       -1.52173281
 C           -1.97974626       -2.91795066        1.21917910
 C           -3.08983823       -1.98406325        1.36327216
 C           -1.45025479       -3.15936153       -0.04459886
 C           -3.76494372       -1.56968803        0.23020920
 C           -2.91140426        0.71242488        0.61082009
 C           -3.76305988       -0.15120539       -0.08913019
 C           -1.31208565        2.53291215        0.53970310
 C           -2.39976575        1.84828435       -0.02350577
 C            0.71423779        3.79215701        0.18697750
 C            1.85966705        3.36133054       -0.59861205
 C           -0.54649299        3.41730186       -0.24586504
 C            2.41051057        1.70909832       -2.25913731
 C            1.63173621        2.79572013       -1.85577207
 C            2.45672301       -0.58525932       -2.77975249
 C            1.71134493       -1.75120616       -2.85135076
 C            1.82512654        0.68044667       -3.10726844
 C           -0.37014236       -2.78221700       -2.63392475
 C            0.32213320       -1.67586910       -3.26849183
 C           -2.29165051       -3.03349685       -1.15089429
 C           -3.53321859       -2.29349172       -1.00491825
 C           -1.73573123       -2.69190568       -2.44932584
 C           -3.88842121       -0.03346367       -1.53267150
 C           -3.61684748       -1.34273420       -2.09950687
 C           -2.43243162       -1.50912347       -2.92542952
 C           -2.81094129        2.13800183       -1.32475690
 C           -3.33516348        1.07150103       -2.15342997
 C           -0.72332582        3.43230550       -1.61910242
 C            0.38379373        2.99189815       -2.45283037
 C           -1.94442808        2.91406935       -2.18101780
 C            0.46543189        0.73577353       -3.40020252
 C           -0.30952857       -0.43503711       -3.36488756
 C           -1.71045239       -0.37366403       -3.29289705
 C           -2.35549017        0.85792278       -3.20813158
 C           -0.14408345        1.98283411       -3.35706961
 C           -1.58624289        2.07557273       -3.31613907
