   70
C70 / DATE: 7/ 1/2024 / Origin: Program Fullerene / C70 from database
 C            1.17625820        0.33083360        4.87013805
 C            2.47187332        0.06080596        4.28726820
 C            2.49355994       -1.33997552        3.89914833
 C            0.35218019       -0.85401418        4.66808523
 C            1.11592365       -1.79688593        3.87902434
 C           -0.92889400       -0.41429229        4.16563829
 C            0.42867527        1.47274224        4.38169644
 C           -0.93781346        1.03370325        4.18710777
 C            0.84858437        2.12191110        3.14911186
 C            2.88829510        0.81997337        3.12363077
 C            1.98764195        1.68134982        2.48488874
 C            3.27521355       -1.44023326        2.67866420
 C            3.68761613       -0.08875526        2.32248677
 C            2.83179329       -2.29875312        1.67921159
 C            0.58375975       -2.27936683        2.68423021
 C            1.45648252       -2.77390429        1.71567833
 C           -1.47655092       -1.03211131        3.05126524
 C           -0.73668314       -1.97808728        2.32634131
 C           -2.48747488       -0.35011504        2.38777498
 C           -1.45457066        1.71496051        3.01403264
 C           -0.34655620        2.40326428        2.37430493
 C           -2.33143728        1.02681573        2.18947859
 C           -0.27714590        2.38683632        0.98118167
 C            2.09312481        1.88166524        1.10753579
 C            0.96368585        2.24069858        0.35444671
 C            3.89335222        0.22885665        0.99095338
 C            3.22063248        1.39890828        0.45845904
 C            3.16072777       -2.00946627        0.29353798
 C            3.78717225       -0.81271966       -0.01943293
 C            0.99903989       -2.92190608        0.34426514
 C            2.05744407       -2.46777270       -0.53859683
 C           -1.21649685       -2.38532702        1.07435890
 C           -0.31396859       -2.60682135        0.03498264
 C           -3.23119456       -1.06962115        1.46704844
 C           -2.54883213       -2.13951733        0.75992623
 C           -4.01473987       -0.33228794        0.49822500
 C           -2.52934269        1.53367342        0.90988670
 C           -1.44341000        2.12578858        0.25388459
 C           -3.57957754        1.00949459        0.17336020
 C           -1.40052079        2.16941366       -1.14388763
 C            1.02275981        2.25927455       -1.04668946
 C           -0.16949202        2.39607861       -1.77686745
 C            3.19380128        1.24508931       -0.97262193
 C            3.44778789       -0.15540535       -1.26494703
 C            2.20019427        1.86693679       -1.70699377
 C            1.72007606       -1.76006524       -1.69150746
 C            2.59793716       -0.78094585       -2.17148729
 C           -0.63078351       -2.19323938       -1.26188776
 C            0.38891785       -1.77014138       -2.12976154
 C           -2.94845347       -2.07326399       -0.63636474
 C           -4.01954143       -1.10040214       -0.72894054
 C           -1.97385251       -2.08180944       -1.63262089
 C           -3.56967571        1.12696241       -1.26753009
 C           -2.54189998        1.82818673       -1.89057855
 C           -3.97955647       -0.15866311       -1.82455504
 C           -2.46096110        1.71651726       -3.27603208
 C           -0.10845241        2.50433827       -3.16590820
 C           -1.25959350        2.13439106       -3.95936791
 C            2.10417377        1.43533271       -3.02085229
 C            2.19221108        0.00000240       -3.24695682
 C            1.03845314        1.94889967       -3.84297963
 C            0.07278115       -1.20429688       -3.36767991
 C           -0.85579046        1.04508092       -4.84407520
 C            1.00547134       -0.37342551       -3.98396037
 C            0.56063667        0.84030026       -4.64858877
 C           -2.30602262       -1.57306240       -2.88870880
 C           -3.36566160       -0.57121096       -2.99412277
 C           -2.88288674        0.46593098       -3.88006810
 C           -1.24878241       -1.19649769       -3.80821513
 C           -1.74162269       -0.07065401       -4.58847233
