   70
C70 / DATE: 7/ 1/2024 / Origin: Program Fullerene / C70 from database
 C            1.67782704       -0.00907146        4.71251952
 C            0.83009434       -1.18557351        4.76100767
 C            1.40147038       -2.17616953        3.86731785
 C            2.60633526       -0.17727902        3.60689667
 C            2.41990209       -1.50723729        3.06805147
 C            2.44781939        0.95253383        2.71309696
 C            0.83359241        1.12714386        4.40036274
 C            1.42953722        1.82196590        3.27582060
 C           -0.54644662       -0.76384019        4.54975463
 C           -0.53086214        0.65771886        4.25116781
 C           -1.39587200       -1.59579205        3.83434472
 C            0.54416620       -3.07222997        3.24152145
 C           -0.89315957       -2.87665996        3.36697680
 C            0.81068814       -3.45422663        1.86667319
 C            2.40905711       -1.67716907        1.68782520
 C            1.85757064       -2.85072314        1.17366619
 C            2.43454929        0.73107931        1.33652971
 C            2.59478994       -0.56744595        0.84384289
 C            1.86532118        1.70475103        0.51092701
 C            0.58242827        2.46041194        2.38439983
 C            1.06119395        2.68552658        1.09757355
 C           -1.26336125        1.15385035        3.17687742
 C           -0.79719150        2.31203086        2.55616413
 C           -2.21523216       -1.03428429        2.77247420
 C           -2.12054000        0.31400046        2.45506578
 C           -1.50189803       -3.14946777        2.07481159
 C           -0.46454341       -3.60655191        1.18269478
 C           -2.26687591       -1.98978474        1.68007236
 C           -0.51659832       -3.24551036       -0.15720793
 C            1.90594862       -3.05726820       -0.19559091
 C            0.66387826       -3.40361026       -0.86446699
 C            2.64490071       -0.76106749       -0.53667281
 C            2.54763731       -2.05961652       -1.02301654
 C            1.81254935        1.48277063       -0.86961396
 C            2.36438122        0.30962972       -1.39283946
 C            1.12405375        2.37375832       -1.70585674
 C            0.34895046        3.56426029        0.29731787
 C            0.41236004        3.43164792       -1.14524565
 C           -1.63565337        2.92907961        1.63818540
 C           -1.03366722        3.80828337        0.65486132
 C           -2.54392429        0.72100616        1.19040161
 C           -2.58409441        2.08292973        0.93628532
 C           -2.14380970       -1.51533957        0.37612905
 C           -1.41375252       -2.24669721       -0.57318720
 C           -2.45630689       -0.17899975        0.12057388
 C           -1.33804957       -1.75964012       -1.88628410
 C            0.74505565       -2.90253474       -2.21304675
 C            2.05012753       -2.27723527       -2.36523301
 C           -0.35898691       -2.26540262       -2.75845690
 C            2.35803262        0.09950096       -2.77291414
 C            2.16631400       -1.25073399       -3.28487188
 C            0.87817938        2.03461515       -3.03931762
 C            1.60880152        1.00598896       -3.62629768
 C           -0.28940375        2.49542649       -3.65495141
 C           -0.90494201        3.75609976       -1.67456045
 C           -1.82299134        3.71543885       -0.55412522
 C           -2.68342330        2.55256733       -0.42929510
 C           -1.30468851        3.12082444       -2.83653434
 C           -2.44558283        0.28293243       -1.19854443
 C           -2.02833637       -0.58605789       -2.21614105
 C           -2.68964871        1.63799274       -1.47493543
 C           -2.37841300        2.14147638       -2.73463478
 C           -1.02228845        1.62371385       -4.55439780
 C           -2.09899506       -0.18231572       -3.54731508
 C           -2.22711182        1.22595063       -3.84310837
 C           -0.17369664       -1.67852024       -4.00573900
 C            1.15359498       -1.17653072       -4.32168096
 C            1.01313091        0.21428655       -4.69329018
 C           -1.13195612       -0.70882606       -4.48588268
 C           -0.38193542        0.41821996       -5.02693462
