   70
C70 / DATE: 7/ 1/2024 / Origin: Program Fullerene / C70 from database
 C            1.36920309        0.08637846        5.13547685
 C            0.59201201       -1.07850954        4.74738874
 C            1.49171807       -1.98850957        4.07983450
 C            2.61080371        0.05080683        4.38144461
 C            2.75358522       -1.29087818        3.86506461
 C            2.59002685        1.15698065        3.43800812
 C            0.63711164        1.26196454        4.70805475
 C            1.50665653        2.03777144        3.84453031
 C           -0.58136247       -0.61438135        4.02872701
 C           -0.64041035        0.82769661        4.16996828
 C           -0.91415757       -1.17146736        2.79311864
 C            1.08846316       -2.54229065        2.80299441
 C           -0.13977493       -2.20448214        2.24662609
 C            3.09436474       -1.45374722        2.46721671
 C            2.24918326       -2.50835105        1.94038570
 C            2.80279015        0.90978330        2.07686762
 C            3.30933163       -0.33494925        1.66769091
 C            2.28702927        1.80808504        1.12885094
 C            0.90124540        2.82653585        2.88235543
 C            1.45071865        2.84106841        1.53958622
 C           -1.18873908        1.55912203        3.12520259
 C           -0.53887625        2.72727632        2.72253463
 C           -1.78837825       -0.46320646        1.95827072
 C           -2.00101206        0.89923514        2.20269668
 C           -2.18839379       -1.03834007        0.74221744
 C           -0.34467153       -2.54023024        0.91641873
 C           -1.56258264       -2.21695618        0.33646898
 C            2.04674935       -2.54721135        0.56519085
 C            0.75761527       -2.77584646        0.08521891
 C            3.47779543       -0.58196572        0.31132663
 C            2.91673283       -1.81215423       -0.23060791
 C            2.38339657        1.52472970       -0.23360946
 C            3.18257545        0.46529056       -0.63975866
 C            1.46774636        2.08684793       -1.13333174
 C            0.38681233        3.27658589        0.64968245
 C           -0.84662351        3.29146571        1.42188996
 C            0.36490672        2.79565791       -0.65704147
 C           -2.65398966        1.67019064        1.25193644
 C           -2.01507054        2.89581942        0.79799311
 C           -2.96308979       -0.30584255       -0.16967311
 C           -3.24000625        1.03226226        0.08980777
 C           -3.17224312       -0.79181771       -1.46555455
 C           -1.84857103       -2.76477687       -0.90512827
 C           -2.79389745       -2.09594935       -1.77171645
 C            0.54900251       -2.83292909       -1.29213253
 C           -0.72527425       -3.18157444       -1.72457365
 C            2.56759357       -1.56331594       -1.61918502
 C            2.92034490       -0.18414547       -1.91043382
 C            1.38077596       -2.08176496       -2.13411716
 C            1.50548185        1.72159396       -2.47499905
 C            2.18611291        0.49685792       -2.86351835
 C            0.29167350        1.82197002       -3.26875486
 C           -0.84925816        2.74727262       -1.35497789
 C           -2.04553164        2.86329462       -0.64839958
 C           -3.14556659        1.99080023       -0.99616928
 C           -0.88949768        2.23784768       -2.65719632
 C           -3.48381441        0.10863619       -2.48982724
 C           -3.20895128        1.51711407       -2.29083856
 C           -2.11769942        1.84331487       -3.19317653
 C           -3.09935669       -0.17636050       -3.86238300
 C           -2.15732111        0.85886652       -4.26358872
 C           -2.44484806       -2.46215486       -3.13634730
 C           -1.08532608       -2.97486959       -3.11103579
 C           -2.51478010       -1.46089175       -4.17993617
 C            0.87039881       -1.53157082       -3.31632239
 C            1.27148654       -0.25321163       -3.70384563
 C            0.28030342        0.69044091       -4.18762516
 C           -0.92727986        0.20771543       -4.67167123
 C           -0.26405011       -2.08506637       -3.90181912
 C           -1.16134195       -1.22756074       -4.66175038
