   70
C70 / DATE: 7/ 1/2024 / Origin: Program Fullerene / C70 from database
 C            1.66664007        0.03139002        4.64879547
 C            0.84776339       -1.16036948        4.55697467
 C            1.34404227       -1.96556859        3.45246166
 C            2.61276130       -0.00307371        3.54894459
 C            2.41032749       -1.22720625        2.80096051
 C            2.49347041        1.24436186        2.83297177
 C            0.79797995        1.17959122        4.44773236
 C            1.30324423        1.92712915        3.30883992
 C           -0.54323591       -0.74701545        4.53975765
 C           -0.57109999        0.70526860        4.41751606
 C           -1.43807222       -1.51618217        3.80779395
 C            0.42864351       -2.63606342        2.65501534
 C           -0.92178106       -2.61669940        3.01041073
 C            0.77050928       -2.91884134        1.33480773
 C            2.42905148       -1.16177809        1.40825149
 C            1.69391304       -2.09288061        0.67250042
 C            2.70376432        1.24011595        1.46887637
 C            2.83581905        0.02343920        0.78906904
 C            2.18607817        2.30963589        0.76367035
 C            0.40873987        2.43787929        2.36156202
 C            0.88387103        2.70550211        1.06889113
 C           -1.45711146        1.30570487        3.53292099
 C           -0.96189531        2.27998242        2.56667523
 C           -2.47780273       -0.87171726        3.01895943
 C           -2.47787971        0.50618130        2.87349064
 C           -1.92460383       -2.90903803        2.00158504
 C           -2.73238768       -1.70943847        1.85703068
 C           -0.10450037       -3.71189595        0.60295761
 C           -1.52858331       -3.57757071        0.85587576
 C            0.07501413       -3.83832068       -0.82606396
 C            1.71697840       -2.02253109       -0.72729329
 C            0.99416771       -2.93907232       -1.48612805
 C            2.91970802        0.07183521       -0.60424157
 C            2.22087431       -0.88108955       -1.35779966
 C            2.66684081        2.48782068       -0.51722808
 C            3.20775270        1.31252182       -1.17136692
 C            1.83683132        3.16268056       -1.48770941
 C           -0.02286430        2.93087031        0.02181647
 C            0.46172572        3.21933270       -1.26084008
 C           -1.85193988        2.24288740        1.42354624
 C           -2.71022642        1.08110770        1.56161839
 C           -1.35446162        2.53436890        0.16463144
 C           -2.87317197       -1.13569186        0.59238873
 C           -2.89438227        0.26018652        0.45106705
 C           -2.13579069       -3.20582552       -0.40690385
 C           -1.22999099       -3.66453846       -1.44337287
 C           -2.73558019       -1.95259210       -0.53674332
 C            0.35234903       -2.48460398       -2.70619966
 C           -1.05548005       -2.84148814       -2.62214405
 C            1.82095939       -0.59732722       -2.67421439
 C            0.70401322       -1.23856242       -3.20948019
 C            3.05509579        1.50560534       -2.59635534
 C            2.35674873        2.76821186       -2.78672633
 C            2.34262135        0.50041231       -3.34753239
 C            1.44062051        2.59888612       -3.89204713
 C            1.49023325        1.19873742       -4.29072896
 C           -0.42741602        3.20902452       -2.34054556
 C            0.05170091        2.95143790       -3.69008840
 C           -2.03280477        2.02949587       -0.93962515
 C           -2.74055049        0.82852034       -0.81391129
 C           -1.69858903        2.52211760       -2.19441711
 C           -2.86297374       -1.39649030       -1.80749894
 C           -2.00140695       -1.86435822       -2.88836916
 C           -2.97997524        0.04292880       -1.93343083
 C           -0.24501015       -0.49249600       -3.91740479
 C            0.12491099        0.73602846       -4.45847830
 C           -0.75177140        1.87514782       -4.23963353
 C           -1.90683753        1.69922249       -3.37607135
 C           -1.59675038       -0.70297154       -3.65617401
 C           -2.40883751        0.41772778       -3.21359900
