   70
C70 / DATE: 7/ 1/2024 / Origin: Program Fullerene / C70 from database
 C            1.45851023        0.08151791        4.78174197
 C            0.66877945       -1.12699682        4.64485654
 C            1.44935765       -2.08469409        3.89632436
 C            2.63083498       -0.06095740        3.93343924
 C            2.64619826       -1.41007998        3.41856817
 C            2.61880709        1.03227166        2.98422276
 C            0.66827193        1.18618680        4.26199354
 C            1.46280891        1.85878770        3.26830559
 C           -0.62663457       -0.74907573        4.11912435
 C           -0.62114741        0.67757791        3.85418615
 C           -1.24986201       -1.55767459        3.18316624
 C            0.82520356       -2.72732149        2.75615058
 C           -0.53638880       -2.57796679        2.53506800
 C            2.70931532       -1.59740079        1.98163830
 C            1.70435278       -2.57870341        1.61631054
 C            2.91915016        0.80078908        1.64161005
 C            2.90029831       -0.50728787        1.13711946
 C            2.64308399        1.84121895        0.75100603
 C            0.82895787        2.42093287        2.17498489
 C            1.64693543        2.75799335        1.11196449
 C           -1.18038547        1.12508141        2.65292994
 C           -0.50430075        2.08764573        1.88348836
 C           -2.31162308       -0.99257515        2.49325824
 C           -2.16114556        0.32912316        2.04732153
 C           -3.10070069       -1.86809784        1.76792624
 C           -1.02947676       -3.01803237        1.30954329
 C           -2.40993103       -2.98833652        1.16163667
 C            1.13072985       -2.50138744        0.34854397
 C           -0.20845744       -2.87317964        0.17575958
 C            2.62606730       -0.68531123       -0.21449160
 C            1.73448647       -1.69123040       -0.61155967
 C            2.93546614        1.65519714       -0.60096246
 C            2.92973265        0.34588620       -1.09537049
 C            2.77881094        2.74311559       -1.45986858
 C            1.09086029        3.57064356        0.14329921
 C            1.80171304        3.74743899       -1.10272115
 C           -1.01502188        2.43771542        0.62328803
 C           -0.31193528        3.35790760       -0.15721687
 C           -2.66664950        0.70449292        0.79659249
 C           -1.94244928        1.59462422        0.00842769
 C           -4.01051701       -1.32779819        0.78793332
 C           -3.68577747       -0.03975027        0.21310006
 C           -2.98608555       -3.21662800       -0.14036882
 C           -4.10559061       -2.29929437       -0.28470686
 C           -0.77308698       -2.78957002       -1.10788830
 C           -2.13243226       -3.05945830       -1.29671847
 C            1.23761828       -1.70031103       -1.91356304
 C           -0.05215448       -2.19066623       -2.14963939
 C            2.81681716        0.09152489       -2.45778642
 C            1.88656384       -0.93761545       -2.88876246
 C            2.66039916        2.53766969       -2.88813255
 C            2.73768601        1.18807866       -3.40086746
 C            0.81223154        3.78681890       -2.16264392
 C           -0.43499240        3.29928112       -1.60292498
 C            1.37902043        3.09856913       -3.29982043
 C           -1.98042864        1.48242359       -1.39097544
 C           -1.07124819        2.20097474       -2.17187988
 C           -3.71274333       -0.18170119       -1.23184744
 C           -3.92082520       -1.58924092       -1.53208218
 C           -2.88336756       -2.28094455       -2.26991705
 C           -2.78028834        0.51167000       -1.99642217
 C           -0.74358611       -1.77096870       -3.28564413
 C           -2.16762509       -1.53966039       -3.18822275
 C           -2.31888057       -0.09275556       -3.16152875
 C            1.12703116       -0.40239323       -4.00928354
 C            1.55909642        0.96731100       -4.21651448
 C            0.61913112        2.02814246       -3.90659798
 C           -0.62838694        1.67031371       -3.39514516
 C           -0.23107081       -0.65682369       -4.05194487
 C           -1.14913064        0.45296358       -3.82081009
