   70
C70 / DATE: 7/ 1/2024 / Origin: Program Fullerene / C70 from database
 C            1.26521748       -0.20314234        4.37061482
 C            2.54277596       -0.55530595        3.79903995
 C            2.47199878       -1.94391676        3.36405931
 C            0.43713761       -1.39856339        4.37977270
 C            1.12701383       -2.42305600        3.62158941
 C           -0.89889482       -1.00370278        3.97439161
 C            0.49450784        0.85461083        3.74783772
 C           -0.89039931        0.43725962        3.76064433
 C            0.97380236        1.49596166        2.61464995
 C            3.03912020        0.21764780        2.67777995
 C            2.26851218        1.24459854        2.13132822
 C            2.99916794       -1.99764385        2.01007698
 C            3.66448603       -0.72789699        1.77780173
 C            2.22992884       -2.55619791        0.98843743
 C            0.44320738       -3.08886829        2.61411267
 C            1.05957735       -3.24504430        1.30349529
 C           -1.62451880       -1.80209656        3.09179856
 C           -0.97839899       -2.83771895        2.40998302
 C           -2.76587689       -1.24385787        2.52409431
 C           -1.77326574        0.96091045        2.82073247
 C           -2.90646267        0.20090716        2.56530319
 C            0.06567105        2.19275059        1.82366889
 C           -1.28814804        1.82742637        1.82391760
 C            0.56050013        3.03277521        0.84033122
 C            2.64442191        1.75543112        0.88497920
 C            1.88261281        2.76484369        0.30676706
 C            3.88618084       -0.33354802        0.47133611
 C            3.49876136        1.01042459        0.07041547
 C            2.45461044       -2.15377914       -0.33146836
 C            3.45387970       -1.21632376       -0.59254191
 C            1.49723523       -2.42198283       -1.31452304
 C           -0.00631034       -3.31723972        0.32089331
 C           -1.26423609       -3.05681188        0.99747339
 C            0.20164976       -2.77599552       -0.93562457
 C           -3.16815771       -1.65398998        1.19005165
 C           -2.23454870       -2.27812732        0.37391710
 C           -3.78991941        0.58083459        1.49110279
 C           -3.99280980       -0.59521362        0.65473887
 C           -2.12513204        2.23276476        0.76653729
 C           -3.38777111        1.65866390        0.61742411
 C           -0.29492978        3.43092142       -0.25769984
 C           -1.60104913        2.95689879       -0.31050127
 C            1.79528520        2.84763460       -1.14279056
 C            0.52003807        3.45610034       -1.46589212
 C            3.26919435        0.97890550       -1.36854215
 C            3.37956240       -0.40724147       -1.79496518
 C            2.28522459        1.79843477       -1.91731599
 C            1.72753728       -1.99464448       -2.61981061
 C            2.59414653       -0.84972157       -2.84225024
 C            0.59976321       -1.86700343       -3.52496733
 C           -0.89069419       -2.26348859       -1.63373715
 C           -2.00785271       -1.80731006       -0.92924667
 C           -0.73911390       -1.92592401       -2.97158530
 C           -3.79128706       -0.18063020       -0.71530554
 C           -3.82162519        1.26850874       -0.70842000
 C           -2.83186126       -0.81919478       -1.49651709
 C           -2.27190132        2.94869761       -1.53502474
 C           -3.27512120        1.93041343       -1.78955196
 C           -0.06635669        3.17887518       -2.68914715
 C           -1.51225117        3.10227041       -2.76458458
 C            1.59259343        1.38751321       -3.06395628
 C            1.83247143        0.12231180       -3.60212313
 C            0.73767886       -0.59997698       -4.22302538
 C            0.48223599        2.11041026       -3.50895795
 C           -1.48738849       -0.80215620       -3.49894811
 C           -2.45257362       -0.20290045       -2.69356876
 C           -2.78051052        1.13889442       -2.90190020
 C           -1.85987506        1.98909478       -3.63371307
 C           -0.56606032        0.02884422       -4.26807266
 C           -0.63240628        1.40767557       -4.13481878
