   70
C70 / DATE: 7/ 1/2024 / Origin: Program Fullerene / C70 from database
 C            1.06326231        0.00848938        4.56296435
 C            2.30846044       -0.26428941        3.89118648
 C            2.27783020       -1.66490888        3.50426886
 C            0.26838997       -1.21334859        4.51177115
 C            0.89538749       -2.07447812        3.53221252
 C           -1.10388630       -0.82019280        4.30565892
 C            0.22369878        1.06990809        4.05286469
 C           -1.12690225        0.63187692        4.30684643
 C            0.50295714        1.65816319        2.81361465
 C            2.62884889        0.48899940        2.69536151
 C            1.66688885        1.31103453        2.11010002
 C            2.96769792       -1.76449136        2.24548315
 C            3.36555994       -0.42373779        1.84788975
 C            2.43538838       -2.57545253        1.25715780
 C            0.26044000       -2.33300132        2.31279746
 C            1.03722202       -2.74840829        1.21908639
 C           -1.77043832       -1.24343427        3.09075585
 C           -1.04778191       -1.87882779        2.08645564
 C           -2.13360110        1.03568397        3.36235219
 C           -2.65680316       -0.15901542        2.72021950
 C           -0.52990512        2.32012774        2.13771031
 C           -1.86508229        2.10977092        2.53550185
 C           -0.26384188        2.89393610        0.88757731
 C            1.74983130        1.56290974        0.73692458
 C            0.82299091        2.42449857        0.13349919
 C            3.43995311       -0.16566579        0.48480072
 C            2.74428691        0.93209793       -0.02971339
 C            3.13581405       -2.54843505        0.06316197
 C            3.67353457       -1.26296219       -0.34819457
 C            2.57338049       -3.19511910       -1.09488552
 C            0.39902672       -3.02287529       -0.00105297
 C            1.15257296       -3.45042967       -1.09395173
 C           -1.53471006       -1.82478355        0.78434114
 C           -0.91283505       -2.58496853       -0.20202815
 C           -3.06978724       -0.03603779        1.39381081
 C           -2.53301975       -0.90183907        0.43417817
 C           -2.86906978        2.38227999        1.62538332
 C           -3.48781998        1.23252598        0.98339909
 C           -1.25627050        3.66516847        0.28240394
 C           -2.63183474        3.38601903        0.62107338
 C           -1.22510313        3.87815269       -1.14643320
 C            0.93494193        2.73640611       -1.23239048
 C           -0.14124270        3.29881929       -1.90187036
 C            2.81323436        1.17354667       -1.39544944
 C            1.83586623        2.03575733       -2.01730745
 C            3.48911264       -1.14226192       -1.78381490
 C            2.87540156       -2.37023065       -2.25449236
 C            3.05856430        0.06655903       -2.30453614
 C            0.68512404       -3.17273967       -2.43845591
 C            1.66885563       -2.29318593       -3.05686514
 C           -1.49199207       -2.65565718       -1.46839761
 C           -0.65859589       -2.90882954       -2.63292241
 C           -2.81190478       -0.67836980       -0.91483339
 C           -2.48349949       -1.66099239       -1.83782109
 C           -3.59450306        1.53347893       -0.43375945
 C           -3.29917502        2.94705307       -0.59041678
 C           -2.47024873        3.36005676       -1.69833717
 C           -3.09358715        0.61887783       -1.35541718
 C           -0.71798253        2.56559614       -3.01784812
 C           -2.11892372        2.37352844       -2.69760066
 C           -2.59296249        1.07157084       -2.58747933
 C            1.34464064        1.37345025       -3.21931610
 C            2.00849774        0.08350856       -3.31433062
 C            1.25995433       -1.06396065       -3.57498653
 C           -0.00317055        1.49476281       -3.55415307
 C           -1.02327059       -1.94145118       -3.64979691
 C           -2.22435092       -1.26156029       -3.20378624
 C           -2.06552540        0.14964041       -3.48033636
 C           -0.04862326       -0.93212644       -4.02794441
 C           -0.70936582        0.36381317       -3.97188797
