   70
C70 / DATE: 7/ 1/2024 / Origin: Program Fullerene / C70 from database
 C            1.44403117        0.02040867        4.68729153
 C            0.68035962       -1.18437445        4.44261178
 C            1.31300860       -1.92088237        3.35879464
 C            2.61683265       -0.03329654        3.84100915
 C            2.51619810       -1.20566111        2.98498844
 C            2.72896268        1.25702628        3.19776305
 C            0.63613380        1.14300157        4.23468195
 C            1.39986770        1.85108238        3.23067507
 C           -0.69587713       -0.77874780        4.26172981
 C           -0.66453909        0.62396697        3.87200338
 C           -1.50309701       -1.62305642        3.52553097
 C            0.49368515       -2.45318597        2.36890971
 C           -0.85627673       -2.61043914        2.67119891
 C            0.87875345       -2.36624694        1.02671636
 C            2.83935316       -1.05885007        1.64018704
 C            2.04677596       -1.67196585        0.66384952
 C            3.41209360        1.29859140        1.99857215
 C            3.61013361        0.04444934        1.28365864
 C            2.96209063        2.23951218        0.99893218
 C            0.79150985        2.19851030        2.02353399
 C            1.61102009        2.57960305        0.95963550
 C           -1.23586262        0.99339121        2.65334633
 C           -0.54044112        1.83484928        1.77105246
 C           -2.53225114       -1.02638685        2.70579389
 C           -2.31527281        0.24577785        2.17937140
 C           -1.79333625       -2.92218142        1.60872669
 C           -2.96557405       -2.08164765        1.81818514
 C            0.02948115       -2.87558707        0.03459607
 C           -1.32155463       -3.11129650        0.31441408
 C            0.47205475       -2.93322233       -1.28268796
 C            2.36156530       -1.48944499       -0.68987537
 C            1.67632245       -2.21741711       -1.65680793
 C            3.76601560        0.38235693       -0.11833319
 C            3.61141465        1.82777158       -0.22501000
 C            3.18738840       -0.43114735       -1.08633185
 C            3.14447485        2.35670217       -1.41384067
 C            1.03896876        2.91381049       -0.26601803
 C            1.86117934        3.03835168       -1.39248669
 C           -1.11012729        2.14580794        0.53222033
 C           -0.34319297        2.82251455       -0.42726277
 C           -2.89743114        0.57390670        0.95683898
 C           -2.36718275        1.61936652        0.20149008
 C           -3.73158072       -1.73047454        0.72226013
 C           -3.79434125       -0.32335939        0.36444141
 C           -2.25261871       -3.11581280       -0.72432125
 C           -3.53694361       -2.47461484       -0.50697189
 C           -0.48379837       -2.77002677       -2.36696813
 C           -1.83312626       -2.79592331       -2.07650606
 C            1.44056313       -1.62618311       -2.96478735
 C            0.01898362       -1.71721491       -3.22452373
 C            3.09927121        0.06537377       -2.38692937
 C            3.15400520        1.50252635       -2.58556191
 C            2.09829767       -0.45905945       -3.29783115
 C            1.28961761        2.92188212       -2.72440182
 C            2.02679647        1.88089103       -3.41959713
 C            1.32426005        0.66583021       -3.79971163
 C           -0.88990040        3.14581638       -1.66600065
 C           -0.08735136        2.94392357       -2.85628815
 C           -2.95570592        1.91785672       -1.02423513
 C           -2.22370192        2.69754596       -1.99660317
 C           -4.05277374       -0.25366610       -1.06475599
 C           -3.77687612       -1.56883996       -1.61665739
 C           -2.67686407       -1.71246490       -2.55675314
 C           -3.60482146        0.85310471       -1.76356298
 C           -0.72764872       -0.54976854       -3.39413487
 C           -0.06891381        0.64627076       -3.71939570
 C           -0.72931382        1.86747353       -3.59128630
 C           -2.12186500        1.89240005       -3.20932797
 C           -2.09774549       -0.55968100       -3.08920364
 C           -2.79356257        0.64047334       -2.95003982
