   70
C70 / DATE: 7/ 1/2024 / Origin: Program Fullerene / C70 from database
 C            1.70418663       -0.19771499        5.30530604
 C            0.87843154       -1.38360893        5.43859587
 C            1.31824718       -2.33835056        4.43991766
 C            2.60124329       -0.40090933        4.17879847
 C            2.36083056       -1.71862203        3.63513389
 C            2.45777126        0.72920726        3.29180500
 C            0.83145445        0.91341363        4.97058391
 C            1.37849634        1.56309762        3.79191250
 C           -0.48929737       -1.01700204        5.10928319
 C           -0.53315811        0.42101756        4.91624856
 C            0.13631868       -2.82791943        3.75656815
 C           -0.93649294       -1.88167462        4.02591272
 C            0.29720865       -3.27199684        2.45886300
 C            2.29744822       -1.87619434        2.25074968
 C            1.53088646       -2.92873345        1.76792649
 C            2.52068749        0.52044464        1.92209219
 C            2.54207144       -0.78052338        1.40653275
 C            2.04109201        1.53309645        1.10724252
 C            0.50419129        2.11813948        2.86049828
 C            0.95936832        2.29782896        1.55545124
 C           -1.36510047        0.92352852        3.92782000
 C           -0.86798147        1.97760960        3.05776846
 C           -1.64747109       -1.32099028        2.95905390
 C           -2.08561418       -0.00571941        3.06978728
 C           -0.76625776       -3.02348013        1.50940989
 C           -1.60148776       -1.92781654        1.69646802
 C            1.24910623       -3.00345681        0.35277374
 C           -0.17490320       -3.22812878        0.20831561
 C            2.42750375       -0.93662963        0.01477537
 C            1.84001939       -2.09597345       -0.51452538
 C            2.29461046        1.45538447       -0.25556341
 C            2.54737497        0.19539364       -0.80476897
 C            1.81283600        2.48505530       -1.05749753
 C            0.08494302        2.83362623        0.61259775
 C            0.60815727        3.17039030       -0.62947684
 C           -1.74480318        1.99585663        1.89928216
 C           -2.44641758        0.72481880        1.87277572
 C           -1.26273563        2.48800114        0.69339908
 C           -2.10424969       -1.26535660        0.56418001
 C           -2.53070904        0.05951589        0.65924611
 C           -0.77975472       -2.66338780       -0.89572201
 C           -1.86188909       -1.79813914       -0.71202814
 C            1.33847453       -2.06020334       -1.81754322
 C            0.01697319       -2.47904638       -2.01763451
 C            2.53059796        0.02363579       -2.18860038
 C            1.92913578       -1.18250973       -2.71769075
 C            1.75345395        2.32718523       -2.49873122
 C            2.15463688        1.12592582       -3.06067546
 C           -0.27903699        3.23974469       -1.77774894
 C            0.53078589        2.96927717       -2.95742305
 C           -1.91142422        2.08527864       -0.47183317
 C           -2.53327661        0.83208766       -0.49515568
 C           -1.55531796        2.69010553       -1.67436988
 C           -2.36334054       -1.13777895       -1.84348857
 C           -2.74653591        0.20428885       -1.71513188
 C           -0.63878685       -2.19332581       -3.20384715
 C           -1.96770260       -1.63010474       -3.09127061
 C            1.25520665       -0.85144353       -3.96206143
 C            1.42028404        0.57896327       -4.19114553
 C            0.04939369       -1.47323510       -4.25642587
 C           -0.09665937        2.51998328       -4.11162518
 C            0.39444992        1.31977853       -4.77457353
 C           -2.22253940        2.30666744       -2.83365374
 C           -2.88968069        1.01762049       -2.83835152
 C           -1.54496219        2.45417224       -4.10950195
 C           -2.22107696       -0.87183067       -4.29998374
 C           -0.96106395       -0.76712497       -5.02575386
 C           -0.74902179        0.63011293       -5.34933144
 C           -2.77002353        0.45526298       -4.16923774
 C           -1.94910452        1.35341507       -4.96470293
