   70
C70 / DATE: 7/ 1/2024 / Origin: Program Fullerene / C70 from database
 C            1.65173261       -0.18582860        4.49429513
 C            0.82958804       -1.35298972        4.23407940
 C            1.53722117       -2.18840402        3.28396904
 C            2.71448658       -0.17040831        3.50665175
 C            2.63872475       -1.40435030        2.74574818
 C            2.63667931        1.08526688        2.78082751
 C            0.83053612        0.98825136        4.27143774
 C            1.47116317        1.80857165        3.25948708
 C           -0.50873297       -0.89972220        3.89033678
 C           -0.52851718        0.54704485        4.02046772
 C           -1.16286536       -1.49496224        2.80940109
 C            0.78360553       -2.94981063        2.40884361
 C           -0.64323221       -2.67779595        2.29260939
 C            1.28033996       -3.15956751        1.06261771
 C            2.81945285       -1.33290453        1.36585864
 C            2.21301233       -2.27923817        0.53229495
 C            2.88580929        1.07169421        1.41641313
 C            3.26577919       -0.13192670        0.81661872
 C            2.31979604        2.07340337        0.62890028
 C            0.65134726        2.44953861        2.33464944
 C            1.11774349        2.66036457        1.03289841
 C           -1.28374053        1.27102758        3.11392850
 C           -0.72431075        2.42059354        2.55365015
 C           -2.04934255       -0.73111546        2.03832437
 C           -2.27238611        0.59996678        2.40168935
 C           -2.48492680       -1.19458253        0.78404171
 C           -1.05480207       -3.12440487        0.98021773
 C            0.14143855       -3.53387517        0.25595299
 C           -2.04417536       -2.43230731        0.29306344
 C            0.17842770       -3.32545061       -1.11532183
 C            2.27873681       -2.11657709       -0.85360247
 C            1.28017916       -2.65939665       -1.67819191
 C            3.65678493       -0.12087690       -0.51382060
 C            3.18358390       -1.18973628       -1.37455546
 C            2.70904603        2.17198591       -0.70206957
 C            3.54708850        1.12319772       -1.25140319
 C            1.71116140        2.51217128       -1.70106386
 C            0.23845915        3.16435140        0.06796487
 C            0.43374611        2.84057284       -1.27747967
 C           -1.53169360        3.21480206        1.75372524
 C           -1.00046068        3.65069098        0.47348390
 C           -3.18774998        1.36432572        1.69224947
 C           -2.89806193        2.77896761        1.53493764
 C           -3.19269339       -0.33640992       -0.06584219
 C           -3.67926201        0.86969558        0.42155883
 C           -3.05714782       -0.48160147       -1.44492723
 C           -2.19005286       -2.72455088       -1.06288060
 C           -1.05310600       -3.29861230       -1.76467063
 C           -2.79372752       -1.74603896       -1.94751567
 C           -1.13804566       -2.90290117       -3.15339722
 C           -2.14571163       -1.86006545       -3.24576171
 C            1.28906699       -2.35502319       -3.04182755
 C            0.05798402       -2.42280728       -3.80676340
 C            2.97524068       -0.63101648       -2.70125918
 C            3.06495274        0.81304339       -2.58415186
 C            1.86941405        1.60310951       -2.82306717
 C            1.96903443       -1.15712857       -3.49147696
 C           -1.50804428       -0.67998573       -3.79719325
 C           -0.21471831       -1.08036261       -4.30184461
 C            0.74978674        0.97159404       -3.35842100
 C            0.93383985       -0.26079822       -3.98439542
 C           -0.65405069        2.45807199       -2.06642594
 C           -2.69920911        0.62940335       -2.21259907
 C           -0.52540725        1.35672157       -2.92098909
 C           -1.62938294        0.50961371       -3.09166935
 C           -2.08996389        3.64856517       -0.48335728
 C           -3.28468068        3.17947508        0.19714623
 C           -3.74559422        1.99291672       -0.49609188
 C           -1.93267874        2.87085044       -1.69775978
 C           -3.00651435        1.89368452       -1.73854353
