   70
C70 / DATE: 7/ 1/2024 / Origin: Program Fullerene / C70 from database
 C            1.50475102       -0.10622784        5.05912774
 C            0.63174660       -1.26149448        5.16790512
 C            1.19706930       -2.31758230        4.35233347
 C            2.55943285       -0.42593337        4.11145746
 C            2.36773279       -1.79049349        3.66753191
 C            2.58847439        0.62034685        3.10808520
 C            0.73046197        0.97776785        4.48671874
 C            1.50096681        1.54024338        3.39294589
 C           -0.65212490       -0.91144593        4.58305692
 C           -0.59683692        0.47981353        4.18159578
 C            0.12351024       -2.86493203        3.54271315
 C           -0.96978649       -1.90328856        3.57004359
 C            0.46791513       -3.42596189        2.32534319
 C            2.51690755       -2.07811318        2.31428864
 C            1.79439923       -3.15251084        1.79703611
 C            2.81075055        0.27068965        1.77950117
 C            2.96701863       -1.07863542        1.44113420
 C            2.43568385        1.18157442        0.78785057
 C            0.80724122        2.06137954        2.30835935
 C            1.47231377        2.15188360        1.09207293
 C           -1.13992518        0.83359005        2.95449798
 C           -0.57665851        1.90768951        2.27043952
 C           -1.52691790       -1.47097638        2.36478760
 C           -1.83854044       -0.11875068        2.21052703
 C           -0.44764263       -3.28590886        1.21024231
 C           -1.40130084       -2.26946700        1.22656680
 C            1.73295424       -3.35067241        0.36101500
 C            0.33015117       -3.49501802        0.00229314
 C            3.19491288       -1.40857974        0.10770700
 C            2.55395277       -2.58815378       -0.45224734
 C            2.77406157        0.92236683       -0.54237587
 C            3.15572193       -0.36336188       -0.90290673
 C            2.34236522        1.78783825       -1.54082314
 C            0.83511148        2.83891514        0.06297800
 C            1.42435476        2.85289994       -1.19445004
 C           -1.25128639        2.37290123        1.14853554
 C           -0.53250129        3.08794860        0.18957986
 C           -2.43689538        0.31026443        1.02879777
 C           -2.38400141        1.66959319        0.74603445
 C           -1.89482202       -1.80105301        0.00777169
 C           -2.57974455       -0.58415623       -0.03343534
 C           -0.12914131       -2.92805039       -1.17814895
 C           -1.39863762       -2.34952026       -1.17508029
 C            2.09407645       -2.25183630       -1.78688668
 C            2.62385851       -0.94343373       -2.12672169
 C            0.79251507       -2.55919696       -2.16386474
 C            1.92270482        1.24189379       -2.82538454
 C            1.90842350       -0.13855945       -3.01184073
 C            0.61915368        3.14364440       -2.36734357
 C            0.82109666        2.05736151       -3.31846532
 C           -1.23360401        3.67032149       -0.86333880
 C           -0.64984019        3.67247767       -2.19605728
 C           -3.12164310        2.15012477       -0.32334687
 C           -2.63981501        3.34001480       -0.99940225
 C           -3.10467428       -0.12086269       -1.24816167
 C           -3.54332467        1.20186731       -1.33865612
 C           -1.97074138       -1.98479445       -2.38342952
 C           -2.85516246       -0.83439060       -2.42359606
 C            0.32018582       -1.98863686       -3.33860529
 C            0.89017833       -0.71814628       -3.76938728
 C           -1.11209180       -1.92533768       -3.54851237
 C           -0.27257505        1.44956137       -3.93665580
 C           -2.59530434       -0.11971550       -3.67072298
 C           -0.19390190        0.10467830       -4.28703560
 C           -1.40450716       -0.69602315       -4.25933475
 C           -1.68673103        3.29590746       -3.13743512
 C           -2.94137314        3.20950498       -2.41153767
 C           -3.48236785        1.87887356       -2.62295288
 C           -1.52519485        2.06807042       -3.89571023
 C           -2.72253877        1.25921382       -3.68702126
