   70
C70 / DATE: 7/ 1/2024 / Origin: Program Fullerene / C70 from database
 C            1.24558418        0.12463831        4.78790551
 C            2.51466357       -0.01112324        4.10608214
 C            2.53974597       -1.32223252        3.47770821
 C            0.43103642       -1.03020947        4.43970611
 C            1.20236424       -1.86522385        3.53263081
 C           -0.86742162       -0.54609249        3.99904786
 C            0.45479043        1.31210377        4.54479286
 C           -0.89416079        0.88510404        4.21202566
 C            0.87673912        2.25235740        3.51939135
 C            2.88896453        0.96399597        3.09408142
 C            2.06270938        2.05157313        2.80899603
 C            3.15856078       -1.17584707        2.17949370
 C            3.49732461        0.22833357        1.99740871
 C            2.64112666       -1.87179994        1.09449600
 C            0.60185137       -2.28553021        2.35056993
 C            1.36851663       -2.45510580        1.18732728
 C           -1.39542087       -1.05113069        2.81612056
 C           -0.77792343       -2.15308171        2.23598733
 C           -2.20784885       -0.23982244        2.01806539
 C           -1.36990165        1.72722943        3.13293675
 C           -0.31912144        2.67012019        2.80241912
 C           -2.07404483        1.15274915        2.08574696
 C           -0.20263981        3.09559676        1.48234689
 C            2.22010512        2.69959772        1.58929293
 C            1.07189291        3.35024730        0.97945855
 C            3.46719260        0.76262571        0.70973041
 C            2.97739117        2.05457933        0.52460703
 C            3.12148556       -1.50659624       -0.15122766
 C            3.49151866       -0.11739135       -0.37160662
 C            2.45910602       -1.98727705       -1.34080989
 C            0.74028266       -2.95785619        0.03605572
 C            1.33274596       -2.79123777       -1.22445028
 C           -1.41491797       -2.78702610        1.18696500
 C           -0.59856374       -3.34138790        0.12628081
 C           -2.84314711       -0.81082326        0.90876138
 C           -2.55212913       -2.12959407        0.56694370
 C           -3.43930988        0.01841081       -0.03874626
 C           -2.22794477        1.89971153        0.92495860
 C           -1.25256265        2.84788554        0.59069576
 C           -3.11834794        1.43346368       -0.03257244
 C           -1.12811448        3.28692527       -0.72674283
 C            1.29277489        3.36704324       -0.45652868
 C            2.35923241        2.42194518       -0.74286188
 C            0.19876539        3.41556385       -1.30142479
 C            2.92819799        0.28735372       -1.65090502
 C            2.44876238       -0.90674625       -2.31483328
 C            2.18509414        1.45364339       -1.72993315
 C            1.37623918       -0.82746852       -3.19237545
 C            0.58465019       -2.99543298       -2.38484643
 C            0.70789549       -2.02127281       -3.45681746
 C           -1.42610820       -3.39286360       -1.06299941
 C           -2.58728615       -2.54355273       -0.82753926
 C           -0.81468433       -3.37552166       -2.30226108
 C           -3.53148004       -0.41262287       -1.42671145
 C           -3.00172707       -1.64449675       -1.80850932
 C           -3.01717760        1.88333743       -1.40865362
 C           -1.99732324        2.75316054       -1.76300774
 C           -3.34059241        0.75912375       -2.27179533
 C            0.21415925        2.60460016       -2.50223199
 C            1.07399984        1.50864603       -2.57626999
 C            0.71025807        0.39773202       -3.35190690
 C           -1.16637864        2.46061657       -2.92310531
 C           -2.69432025        0.62421095       -3.49365799
 C           -0.44918216        0.46984414       -4.13082234
 C           -1.49497352        1.40500149       -3.75864646
 C           -0.53313918       -2.01730432       -4.20000143
 C           -1.51152807       -2.75196451       -3.41412473
 C           -2.61350822       -1.84948846       -3.13174424
 C           -1.11591595       -0.74480938       -4.55884623
 C           -2.46688175       -0.70913688       -4.01951953
