   70
C70 / DATE: 7/ 1/2024 / Origin: Program Fullerene / C70 from database
 C            1.56005449       -0.06096350        5.17037805
 C            0.74543444       -1.25955165        5.26867158
 C            1.33388917       -2.26514064        4.40479790
 C            2.62825697       -0.32271186        4.22048386
 C            2.56284699       -1.72273029        3.84891942
 C            2.55367088        0.67952120        3.16797322
 C            0.73148993        0.99130950        4.61257982
 C            1.42293813        1.54340284        3.46410149
 C           -0.57076075       -0.94881062        4.73872305
 C           -0.60233240        0.46267325        4.40187485
 C            0.30282604       -2.72866884        3.48760011
 C           -0.87605321       -1.90466605        3.68605551
 C            0.66848722       -3.05094615        2.18818179
 C            2.88656854       -2.06536742        2.54614909
 C            2.01890436       -2.98911444        1.84268857
 C            2.77329276        0.29199658        1.84392817
 C            3.19547262       -1.01038111        1.58946451
 C            2.16963388        1.02295692        0.81519201
 C            0.65779886        1.99108237        2.39926288
 C            1.24230217        2.01356423        1.14262865
 C           -1.26319116        0.83079013        3.23680156
 C           -0.72835182        1.86303622        2.46492968
 C           -1.56676823       -1.44437192        2.56757272
 C           -2.03115365       -0.13075620        2.58659931
 C           -0.28784340       -2.95307581        1.17637962
 C           -1.36298828       -2.06784560        1.33054991
 C            0.06342193       -3.38997871       -0.09509699
 C            2.38091953       -2.88574793        0.44439646
 C            2.99427950       -1.57765125        0.26552960
 C            1.46011726       -3.30297648       -0.49634554
 C            2.25533520        0.57577558       -0.51057500
 C            2.54471243       -0.76404206       -0.77186476
 C            1.71452902        1.36367374       -1.52922292
 C            0.54699775        2.64429172        0.12379781
 C            1.02516176        2.52556649       -1.17572481
 C           -1.47066131        2.31359851        1.37460821
 C           -0.79802124        2.95737740        0.33659781
 C           -2.83805949        0.29803009        1.54672943
 C           -2.66571724        1.65908631        1.08059983
 C           -2.06274481       -1.59666970        0.20800320
 C           -2.94686876       -0.53566272        0.36381056
 C           -0.73600321       -2.98759309       -1.23715997
 C           -1.68115819       -1.97934117       -1.08027963
 C            1.47163053       -2.65830006       -1.79063523
 C            1.99672372       -1.36964174       -1.90436285
 C            0.17299933       -2.92975200       -2.36730426
 C            1.54916424        0.81546763       -2.80650021
 C            1.56407232       -0.57507984       -2.96589896
 C            1.11275270        1.63001459       -3.85330082
 C            0.47692287        3.34083447       -2.15744552
 C            0.57095970        2.93958770       -3.54625741
 C           -1.55003589        3.44882691       -0.72516687
 C           -0.86286672        3.84725504       -1.94154761
 C           -3.19023674        1.70948683       -0.27267585
 C           -3.21638730        0.34062455       -0.76520932
 C           -2.73913884        2.70973780       -1.11728232
 C           -2.02579421       -1.19077913       -2.18862079
 C           -2.64974768        0.04985820       -2.00289276
 C           -0.19783703       -2.18422002       -3.46595579
 C            0.73065098       -1.17091658       -3.91677461
 C           -1.48203657       -1.51508441       -3.43066619
 C            0.26074641        1.06733984       -4.88306390
 C           -0.02299280       -0.34782989       -4.83752158
 C           -1.42765357       -0.50835284       -4.47372178
 C           -0.76892884        3.01015322       -4.11900162
 C           -1.67460685        3.40090962       -3.05823711
 C           -2.59693664        2.41171679       -2.52832799
 C           -2.48648816        1.08224812       -2.94023237
 C           -1.01467936        1.75222791       -4.79327889
 C           -1.95092025        0.81069942       -4.19840801
