   70
C70 / DATE: 7/ 1/2024 / Origin: Program Fullerene / C70 from database
 C            1.48448555       -0.21886887        5.13952504
 C            0.62780931       -1.38007096        5.01592325
 C            1.20839241       -2.24971745        4.00799985
 C            2.57213396       -0.36563061        4.18509166
 C            2.33826806       -1.56376251        3.41372774
 C            2.68204778        0.88076025        3.46914323
 C            0.71153191        0.94130997        4.73132767
 C            1.55052600        1.71298572        3.85343858
 C           -0.65289446       -0.92835861        4.50053067
 C           -0.55407523        0.48614338        4.20326753
 C            0.13506096       -2.65732146        3.12391916
 C           -1.01141777       -1.81542994        3.41941865
 C            0.42847790       -2.86560282        1.77914708
 C            2.38987603       -1.49433919        2.02444734
 C            1.67070584       -2.44422030        1.29844969
 C            3.02382103        0.86244247        2.11850527
 C            2.80668076       -0.31437516        1.38020712
 C            2.90761719        2.08454232        1.46561141
 C            0.95745642        2.44445086        2.83858728
 C            1.85834217        2.97538128        1.93388493
 C           -0.94464381        0.92872604        2.93775776
 C           -0.30044893        2.02970111        2.35340033
 C           -1.69266407       -1.29375165        2.33246695
 C           -1.72561905        0.09013469        2.13611877
 C           -0.64404825       -2.87439726        0.88956603
 C           -1.76042823       -2.09346950        1.20507750
 C           -0.40442646       -3.21505247       -0.44210617
 C            1.92845496       -2.55900183       -0.05913642
 C            0.88619861       -3.06564948       -0.93835813
 C            2.77003256       -0.26453726       -0.02358651
 C            2.56884754       -1.44323791       -0.72980677
 C            2.88704961        2.12837155        0.01910429
 C            2.63248418        0.95878997       -0.68605687
 C            1.35039483        3.70107124        0.80414081
 C            2.16480199        3.32760945       -0.33792590
 C           -0.74865758        2.49126084        1.10285491
 C           -0.03013871        3.48290746        0.43994869
 C           -2.19910440        0.56046313        0.91062500
 C           -1.68843074        1.74925365        0.37745095
 C           -2.60972591       -1.69607788        0.18754120
 C           -2.87731923       -0.32761713        0.07266715
 C           -1.47142761       -3.20034003       -1.33493935
 C           -2.68275154       -2.52205878       -0.92501882
 C           -1.23471136       -2.83678369       -2.72332732
 C            1.08274595       -2.45792316       -2.24394568
 C            2.05668028       -1.38721118       -2.08522864
 C           -0.01496605       -2.26318441       -3.07864553
 C            2.00485315        1.02254689       -1.94647781
 C            1.80888321       -0.15908814       -2.68345410
 C            1.28373465        3.26390317       -1.47215085
 C           -0.06851558        3.53107130       -1.00545429
 C            1.44347166        2.23833613       -2.38874537
 C           -1.99650228        2.10944926       -0.94716792
 C           -1.10696836        2.90334589       -1.67917662
 C           -3.50045331        0.17774549       -1.06221155
 C           -2.99725117        1.41411048       -1.62835061
 C           -3.37390517       -2.07666076       -2.11444820
 C           -2.47665323       -2.28423147       -3.24103716
 C           -3.84615259       -0.71124378       -2.15780651
 C           -2.89370371        1.22791724       -3.07043952
 C           -2.43681751       -1.05710838       -4.00880377
 C           -3.35585910       -0.11401876       -3.38605672
 C            0.02166728       -1.21284286       -3.99711581
 C            1.00933396       -0.15643452       -3.82429706
 C           -1.21300641       -0.59905409       -4.47602832
 C            0.48665850        2.21575753       -3.39036664
 C           -0.86770064        2.58813836       -3.01603255
 C           -1.78465696        1.72775450       -3.73526107
 C            0.41434865        1.07976813       -4.27045214
 C           -0.98782945        0.83252448       -4.56145676
