   70
C70 / DATE: 7/ 1/2024 / Origin: Program Fullerene / C70 from database
 C            1.39197828       -0.18378482        4.46122840
 C            2.64598635       -0.49975736        3.82225850
 C            2.59385896       -1.88902735        3.39059322
 C            0.54421452       -1.36654748        4.40036099
 C            1.25965514       -2.39265458        3.66545700
 C           -0.76229564       -0.93736500        3.92784521
 C            0.61287157        0.92777188        3.95387653
 C           -0.77375300        0.51221212        4.01124231
 C            1.04772860        1.65061237        2.84117826
 C            3.06356892        0.29021681        2.68225505
 C            2.25657796        1.32283492        2.20033715
 C            3.10663179       -1.94273607        2.02942341
 C            3.65660471       -0.63229671        1.73368454
 C            2.37995847       -2.61336194        1.04674440
 C            0.59263743       -3.09693684        2.67363861
 C            1.27404096       -3.37774992        1.42176892
 C           -1.33257051       -1.55968061        2.81601776
 C           -0.78260974       -2.74726732        2.34103277
 C           -2.22652093       -0.84300641        2.01463470
 C           -1.69470093        1.20553319        3.24875511
 C           -2.59019078        0.44693458        2.39971625
 C            0.12836529        2.48959500        2.20366172
 C           -1.23482506        2.33156213        2.45299814
 C            0.52140825        3.21866439        1.08962137
 C            2.53230120        1.83546989        0.92970525
 C            1.76362274        2.87584602        0.42679702
 C            3.75904815       -0.23829006        0.41144472
 C            3.30588979        1.09091869        0.04000339
 C            2.56641733       -2.27461031       -0.29817621
 C            3.31508153       -1.14690794       -0.63107047
 C            1.76284641       -2.85373172       -1.27758700
 C            0.24227696       -3.67578482        0.44750536
 C           -1.00550786       -3.13139708        0.95807719
 C            0.53055977       -3.52431058       -0.89493341
 C           -2.52369400       -1.28432311        0.71906384
 C           -1.77946136       -2.31279467        0.14123319
 C           -3.38232546       -0.53650809       -0.08085382
 C           -3.10315922        1.37376936        1.40924851
 C           -2.18523647        2.50062942        1.36203052
 C           -3.60082797        0.86824902        0.22394637
 C           -0.45951266        3.53394671        0.06018140
 C           -1.73287727        2.97138504        0.13153626
 C            1.53654655        2.95697307       -1.00811691
 C            0.24113215        3.58211649       -1.21116617
 C            2.93206360        1.04936814       -1.36556507
 C            2.92259512       -0.33973836       -1.77815170
 C            1.93161093        1.89600724       -1.82215710
 C            1.49219943       -2.11639578       -2.50444622
 C            1.90630871       -0.78872381       -2.61041245
 C           -0.51130333       -3.03955245       -1.77965839
 C           -1.60839917       -2.36269285       -1.24794391
 C            0.15741355       -2.49059149       -2.94143368
 C           -3.29751464       -0.66340587       -1.52532903
 C           -2.34747980       -1.51655879       -2.08029557
 C           -3.38327880        1.61456053       -1.00007711
 C           -2.39587943        2.60002881       -1.04355464
 C           -3.50356042        0.66362939       -2.09167867
 C           -0.45717496        3.30677438       -2.37332107
 C           -1.86784518        2.97825248       -2.27707749
 C            1.10506925        1.48724558       -2.87243225
 C            1.09117051        0.13737279       -3.26877842
 C            0.12259909        2.37319237       -3.31925961
 C           -0.54619193       -1.61556947       -3.74736352
 C           -1.91909521       -1.30405199       -3.39177388
 C            0.07493253       -0.35279738       -4.09137762
 C           -2.95423448        0.97613557       -3.32667266
 C           -2.20628309        2.21301942       -3.46807270
 C           -0.96189908        1.90754825       -4.15896035
 C           -2.24410627       -0.05440799       -4.06051073
 C           -0.99345784        0.51694096       -4.54089548
