   70
C70 / DATE: 7/ 1/2024 / Origin: Program Fullerene / C70 from database
 C            1.19647043        0.20887863        4.78931038
 C            2.45438468       -0.00260001        4.10563180
 C            2.54315095       -1.42162330        3.83817990
 C            0.37714574       -0.98048139        4.57461932
 C            1.19141609       -1.94989420        3.88513469
 C           -0.85762296       -0.55609352        3.95601444
 C            0.40033543        1.34944502        4.40048801
 C           -0.95145000        0.86559717        4.19012742
 C            0.76544109        2.07998381        3.19834830
 C            2.69424966        0.68258245        2.84422093
 C            1.73744759        1.56483115        2.34268581
 C            3.27956833       -1.58339155        2.60080829
 C            3.31238997       -0.27843081        1.94941390
 C            2.96265307       -2.68443805        1.82204206
 C            0.70391377       -2.57503772        2.74230269
 C            1.64387334       -3.27893518        1.99854690
 C           -1.19815472       -1.03855415        2.69207392
 C           -0.43627511       -2.05681712        2.09278386
 C           -2.10361714       -0.30410925        1.91343047
 C           -1.52156065        1.67239558        3.14021854
 C           -0.48161263        2.54303425        2.63314487
 C           -2.31391864        1.05826201        2.18585626
 C           -0.54364892        2.83669072        1.28117266
 C            1.55526453        1.67805670        0.95967195
 C            0.53647753        2.49812527        0.45876690
 C            3.04642894       -0.20321782        0.58583725
 C            2.27785201        0.85758494        0.08700133
 C            3.17841151       -2.59643233        0.39454683
 C            3.25172411       -1.33909664       -0.20109556
 C            1.25352081       -3.86622073        0.73932007
 C            2.32270658       -3.60012362       -0.20703939
 C           -0.74654113       -2.45709949        0.78039111
 C            0.02082702       -3.42099840        0.13451137
 C           -2.48896053       -0.80729671        0.66803285
 C           -1.64678982       -1.70904810        0.02197388
 C           -3.42968317       -0.09921173       -0.07520888
 C           -2.71919331        1.86783760        1.13341214
 C           -1.80997792        2.84841824        0.70831236
 C           -3.60480877        1.30554173        0.22783312
 C           -1.91220573        3.39900330       -0.55919382
 C            0.39731577        2.66782204       -0.92477264
 C           -0.73459100        3.33833937       -1.40418053
 C            2.11285142        0.99732298       -1.29243036
 C            1.17203216        1.89925082       -1.79957212
 C            3.05308666       -1.24812465       -1.57223493
 C            2.64775409        0.02572578       -2.13533677
 C            1.71326727       -3.29540244       -1.48385248
 C            0.27069197       -3.27590651       -1.28778065
 C            2.27993479       -2.28687985       -2.24705288
 C           -1.55700406       -1.71813489       -1.37959093
 C           -0.48624282       -2.35837284       -2.00816256
 C           -3.44454946       -0.23483124       -1.51965526
 C           -2.41431392       -0.92596078       -2.14424520
 C           -3.91819148        2.00577619       -0.99944747
 C           -3.07739598        3.11910489       -1.37476494
 C           -3.88633167        1.03347000       -2.07794634
 C           -1.18629439        3.14098089       -2.77150722
 C           -2.62308598        2.89958070       -2.73513212
 C           -3.13906135        1.61233218       -3.17955244
 C            0.86858003        1.87667726       -3.16485117
 C           -0.40735828        2.38973991       -3.63421890
 C            1.97717938       -0.27891327       -3.38275129
 C            1.44499910       -1.62112228       -3.22472162
 C            0.06368032       -1.79076083       -3.15885005
 C            1.15534291        0.68169343       -3.94171830
 C           -2.03652011       -0.56215024       -3.43711093
 C           -2.30598931        0.78691136       -3.92003041
 C           -1.04695158        1.33068377       -4.39751354
 C           -0.72666365       -0.95017001       -3.93186636
 C           -0.10580286        0.23420154       -4.50277854
