   70
C70 / DATE: 7/ 1/2024 / Origin: Program Fullerene / C70 from database
 C            1.59140582       -0.01420088        4.75591298
 C            0.76111320       -1.17494628        4.49948003
 C            1.38487412       -1.95769280        3.44565719
 C            2.69234185       -0.04423137        3.81190334
 C            2.52796783       -1.20861119        2.95607590
 C            2.76943814        1.26126686        3.18749935
 C            0.79720964        1.16497586        4.45999602
 C            1.54274674        1.97621978        3.51312927
 C           -0.59858193       -0.71319817        4.29238803
 C           -0.53386668        0.72441271        4.08466770
 C           -1.41035998       -1.46742384        3.46117753
 C            0.56196978       -2.58790113        2.52291804
 C           -0.81474857       -2.58363621        2.74914400
 C            1.02447350       -2.75979260        1.21973020
 C            2.70556734       -1.06222506        1.58071611
 C            1.96249504       -1.85987189        0.70238563
 C            3.24012473        1.32617537        1.88598447
 C            3.31447506        0.09826387        1.10539140
 C            2.71991542        2.35717146        1.00635327
 C            0.84664735        2.61285550        2.48737672
 C            1.55791104        3.03425781        1.35916061
 C           -1.11046715        1.28115863        2.94684763
 C           -0.53958467        2.42834106        2.39970825
 C           -2.26587442       -0.78816446        2.50381665
 C           -2.01346012        0.53720631        2.18012334
 C           -1.71075288       -2.90088254        1.65364591
 C           -2.54329132       -1.72784283        1.43226878
 C            0.25155110       -3.51757316        0.34864378
 C           -1.18969539       -3.55099641        0.54870741
 C            0.49337131       -3.43855777       -1.08034518
 C            2.00639387       -1.60879397       -0.67708128
 C            1.36949208       -2.47557328       -1.57150749
 C            3.16683282        0.46246934       -0.28967019
 C            2.86674898        1.88077319       -0.35857602
 C            2.49734141       -0.38928394       -1.14816081
 C            1.97721725        2.33318357       -1.33062521
 C            0.89594732        3.75012087        0.36899413
 C            1.15783505        3.42355299       -1.02655919
 C           -1.25524624        3.11081762        1.42659051
 C           -0.52958402        3.96263258        0.50933169
 C           -2.41275233        1.01686212        0.93215867
 C           -2.24483132        2.37041168        0.66205630
 C           -2.70593467       -1.25680941        0.13104041
 C           -2.63266328        0.12023763       -0.12269384
 C           -1.79759549       -3.30530281       -0.74334133
 C           -0.79196824       -3.63937292       -1.73370953
 C           -2.57476227       -2.16190366       -0.92337192
 C           -0.96718383       -3.18925285       -3.03292776
 C            1.29357832       -2.12632433       -2.92054680
 C            0.16817812       -2.59459286       -3.71385699
 C            1.99985099        0.13327733       -2.33455064
 C            1.63666568        1.48478753       -2.39084793
 C            1.56799072       -0.75464062       -3.31130075
 C            0.67142771        1.90215580       -3.30498545
 C           -0.07399945        3.64194831       -1.77106658
 C           -1.13727625        3.83028056       -0.80130647
 C           -2.18179766        2.82336146       -0.71429234
 C           -0.33718626        2.84826002       -2.87489554
 C           -2.70565500        0.59267368       -1.44067123
 C           -2.29274642        1.89324658       -1.73922419
 C           -1.60198548        2.13521582       -2.92655434
 C           -2.83503343       -1.73429267       -2.21775350
 C           -2.13386921       -2.37161782       -3.32269060
 C           -2.89345273       -0.30998803       -2.48648776
 C           -0.31717516       -1.47997654       -4.51070718
 C            0.55069856       -0.34258653       -4.26274760
 C           -0.00640717        0.92157312       -4.13546865
 C           -1.44007433        1.06330716       -3.89042267
 C           -1.73880472       -1.33737379       -4.26165418
 C           -2.23312984       -0.06801956       -3.76038011
