   70
C70 / DATE: 7/ 1/2024 / Origin: Program Fullerene / C70 from database
 C            1.61852375        0.01890462        4.70682342
 C            0.81349758       -1.17584753        4.52826145
 C            1.41508628       -1.96703326        3.46717723
 C            2.70950438       -0.04367441        3.75312351
 C            2.70292979       -1.36718232        3.15903712
 C            2.60951185        1.10451629        2.86596272
 C            0.79134021        1.15672661        4.35378178
 C            1.40698420        1.83198143        3.22555863
 C           -0.56709371       -0.75889947        4.37646673
 C           -0.57484898        0.68745840        4.20577104
 C           -1.38754574       -1.52066327        3.55954261
 C            0.59959158       -2.43494940        2.43237827
 C           -0.77473188       -2.46515374        2.63407052
 C            1.11359498       -2.55168440        1.13443195
 C            3.18931378       -1.48908956        1.87173023
 C            2.46911792       -2.33184194        0.93732447
 C            2.91080418        0.92175116        1.51837764
 C            3.51349371       -0.27335671        1.14293694
 C            2.21792672        1.65463474        0.54910487
 C            0.58158972        2.28998433        2.21106253
 C            1.08706947        2.40035366        0.91651074
 C           -1.35363861        1.23989197        3.19185253
 C           -0.79760977        2.24848558        2.39750978
 C           -2.46441099       -0.86191529        2.84395062
 C           -2.45634020        0.52149041        2.71830746
 C           -1.65629927       -2.59672714        1.49540150
 C           -2.76571516       -1.67093276        1.67659350
 C            0.25254307       -2.59516092        0.02323486
 C           -1.12491890       -2.75968182        0.22416232
 C            0.76773105       -2.45875984       -1.28619007
 C            2.93246728       -1.95254283       -0.37410244
 C            3.53863599       -0.63416208       -0.25571425
 C            2.13391607       -2.18874320       -1.47976910
 C            2.52399611        1.46669841       -0.80517966
 C            3.21068650        0.31510738       -1.21452487
 C            1.91472916        2.28389598       -1.75259109
 C            0.31257008        3.04136823       -0.05629133
 C            0.72330843        3.02223207       -1.38425401
 C           -1.60233473        2.91418265        1.48659180
 C           -1.03446922        3.29667664        0.20524318
 C           -3.27068835        1.09098197        1.74684569
 C           -2.93905534        2.41028277        1.24799551
 C           -3.33117610       -1.06959785        0.55365298
 C           -3.69333575        0.27904030        0.61268728
 C           -1.99779289       -2.58931629       -0.83759913
 C           -3.10603502       -1.65656281       -0.68994972
 C           -0.10719678       -2.45157041       -2.39034009
 C           -1.48019006       -2.45691053       -2.17896295
 C            0.34497411       -2.05902447       -3.65144757
 C            2.53387237       -1.53603364       -2.63773557
 C            3.02149813       -0.17378331       -2.50522632
 C            1.70468726       -1.60554177       -3.81192177
 C            1.73507211        1.81155138       -3.11641091
 C            2.35098061        0.63203658       -3.50638777
 C            1.66800149       -0.27884362       -4.41018954
 C           -0.27635910        2.79133979       -2.41502645
 C            0.35866778        2.09075449       -3.51232899
 C           -2.01715802        2.99733792       -0.82638824
 C           -3.17912795        2.42684636       -0.18455408
 C           -3.59782886        1.10404524       -0.58565998
 C           -1.56847831        2.45568135       -2.02425155
 C           -3.13009974       -0.82942232       -1.88260365
 C           -2.31514256       -1.49043624       -2.88046333
 C           -3.06590341        0.55123756       -1.74326837
 C           -2.16134085        1.28577750       -2.52662083
 C           -0.49158536       -1.17929996       -4.45074393
 C            0.29491651       -0.00569033       -4.78780506
 C           -0.37542685        1.15067344       -4.22281781
 C           -1.74854188       -0.72768967       -3.88684427
 C           -1.66071381        0.71379791       -3.69929874
