   70
C70 / DATE: 7/ 1/2024 / Origin: Program Fullerene / C70 from database
 C            1.36731697       -0.18363684        4.22214373
 C            2.39024754       -0.34259703        3.20495072
 C            2.21133970       -1.65151584        2.59301094
 C            0.49845061       -1.34743572        4.16480768
 C            0.96721710       -2.20470630        3.08792802
 C           -0.87642601       -0.88318531        4.14430190
 C            0.53483290        1.00223202        4.20047113
 C           -0.85545402        0.57162379        4.18379937
 C            0.93264137        2.08432492        3.42594484
 C            2.74104653        0.73808227        2.39770200
 C            2.10328528        1.96769549        2.56486919
 C            3.41111797        0.47841325        1.20696649
 C            2.53904682       -1.81212595        1.25264643
 C            3.38866436       -0.87296438        0.67318361
 C            1.73118363       -2.60700265        0.43354866
 C            0.05188288       -2.71675060        2.17726161
 C            0.47899685       -3.04397913        0.88882882
 C           -1.78679310       -1.53949682        3.32567097
 C           -1.31383895       -2.59061843        2.43847504
 C           -2.79490827       -0.78004732        2.60022997
 C           -1.79707112        1.29845934        3.46286244
 C           -2.79638203        0.60443613        2.66434995
 C           -0.06244428        2.87922422        2.72301012
 C           -1.39264153        2.49294218        2.73611853
 C            1.89297175        2.83562429        1.41559652
 C            0.52943930        3.34072637        1.48079264
 C            3.28618183        1.39789288        0.08547143
 C            2.43133797        2.49346408        0.17807836
 C            3.49658324       -0.78286019       -0.77189542
 C            3.32339371        0.61170031       -1.14074539
 C            2.08434852       -2.77030172       -0.90616840
 C            2.91105439       -1.76435328       -1.55099475
 C            1.09582164       -3.21225405       -1.87503598
 C           -0.44793756       -3.57220221       -0.00939422
 C           -0.16763797       -3.57377150       -1.43498163
 C           -2.26544212       -2.68205224        1.34571542
 C           -2.99880940       -1.42839925        1.31496717
 C           -1.85127755       -3.23693304        0.14954377
 C           -3.01094535       -0.66626985        0.14490751
 C           -3.00629994        1.36916298        1.44855462
 C           -2.15963128        2.55023251        1.50529438
 C           -3.17042208        0.72215730        0.22535430
 C           -0.22755222        3.39543224        0.31241903
 C           -1.57640676        3.01041864        0.32585637
 C            1.81927296        2.97842204       -0.97545997
 C            0.46134357        3.49481334       -0.89433483
 C            2.48520741        0.95412282       -2.19833857
 C            1.93275876        2.23175574       -2.21818290
 C            2.25304329       -1.38315604       -2.78689663
 C            1.24037044       -2.39014351       -3.06701505
 C            1.98600518       -0.03855437       -3.04936730
 C            0.11703955       -2.03667090       -3.80368047
 C           -1.34894507       -3.05828778       -2.11382334
 C           -2.27014234       -2.60825345       -1.08730546
 C           -2.68628874       -1.27668429       -1.07529528
 C           -1.20921326       -2.29292914       -3.26110169
 C           -2.58349597       -0.51820683       -2.24518169
 C           -1.97580563       -1.06468480       -3.37646064
 C           -3.04402824        1.49371080       -0.92228530
 C           -2.22442953        2.69522295       -0.86765206
 C           -2.81157323        0.85232809       -2.19920726
 C           -0.20425085        3.20295759       -2.15122021
 C            0.74128570        2.49862592       -3.00490344
 C           -1.53726850        2.82682781       -2.13884815
 C           -1.99349927        1.75012018       -3.00315906
 C            1.02453048        0.28595934       -4.00550563
 C            0.08561673       -0.73261984       -4.44250861
 C           -1.25444548       -0.19168802       -4.28539224
 C            0.28831456        1.53245910       -3.89125911
 C           -1.13148385        1.21576768       -3.95203304
