   70
C70 / DATE: 7/ 1/2024 / Origin: Program Fullerene / C70 from database
 C            1.36678231        0.11835971        5.10096701
 C            0.57937774       -1.09989894        5.08912401
 C            1.49218638       -2.18336207        4.79767090
 C            2.60587909       -0.16017060        4.39162379
 C            2.72373151       -1.59290202        4.28276671
 C            2.60501655        0.63099703        3.17493534
 C            0.64167099        1.11170876        4.33357931
 C            1.52180463        1.58907626        3.29055036
 C           -0.56375331       -0.88080044        4.21245380
 C           -0.62345004        0.53965672        3.91665066
 C           -0.85520020       -1.78710960        3.19211062
 C            1.07018935       -3.19762723        3.85551671
 C           -0.14348019       -2.98729494        3.08525175
 C            2.96486794       -2.16820664        2.97645597
 C            2.14656380       -3.36297136        2.89724696
 C            2.82688922        0.02946811        1.92941938
 C            3.06234451       -1.35437219        1.84325169
 C            2.45626305        0.75330142        0.78174114
 C            0.93476048        2.01425439        2.11451133
 C            1.67645188        1.90269783        0.94849717
 C           -1.12428235        0.93526150        2.68128166
 C           -0.45173158        1.93840045        1.99162229
 C           -1.59039123       -1.34665621        2.08903486
 C           -1.85317972        0.02142849        1.93150566
 C           -1.69555135       -2.18910600        0.98439146
 C            0.10432526       -3.54055757        1.76291763
 C            1.54538702       -3.68974476        1.61884682
 C           -0.63521557       -3.04309282        0.69500822
 C            2.96767336       -1.98249021        0.60500275
 C            2.14015682       -3.17663529        0.47944391
 C            2.55160644        0.17188724       -0.48888079
 C            2.77900126       -1.19158822       -0.59476950
 C            1.98982544        0.83339027       -1.58466514
 C            1.17044876        2.55540458       -0.16844218
 C            1.61966819        2.16227282       -1.42458972
 C           -0.98961242        2.39175839        0.79382549
 C           -0.12269988        3.06332446       -0.05446895
 C           -2.44907294        0.46936179        0.74905513
 C           -2.06304456        1.70561970        0.21590248
 C           -2.54808509       -1.83114577       -0.04458535
 C           -3.04465524       -0.46946161       -0.07913189
 C           -2.14904621       -2.16617014       -1.39424021
 C           -0.06398152       -3.00130691       -0.58312959
 C            1.32251868       -3.00196159       -0.70253472
 C            1.94158797       -1.96110238       -1.49397270
 C           -0.80893929       -2.45692718       -1.63135350
 C            1.38786090        0.08054326       -2.60269286
 C            1.14168186       -1.27405008       -2.38942963
 C           -0.13412530       -1.76747028       -2.64672646
 C            0.68618510        0.73046626       -3.62079753
 C            1.16872004        2.86991313       -2.53336614
 C            0.76207198        2.12110161       -3.70923726
 C           -0.67056947        3.73355374       -1.13107072
 C            0.15715841        3.88337215       -2.30701050
 C           -2.48714685        2.09516444       -1.06739514
 C           -1.97731082        3.29396839       -1.58249694
 C           -3.30694812       -0.13894106       -1.46569071
 C           -2.84960808       -1.25945050       -2.27922684
 C           -3.09366371        1.15807191       -1.92288547
 C           -0.85912449       -1.17914017       -3.67778158
 C           -0.32909021        0.03224083       -4.28419085
 C           -2.29405092       -0.99159325       -3.51814454
 C           -3.09553820        1.35073876       -3.30810829
 C           -1.46313873        0.74044707       -4.85246112
 C           -2.64216170        0.26389417       -4.15460590
 C           -0.29519399        2.87693465       -4.36818143
 C           -0.72006930        3.92555552       -3.46031310
 C           -2.05808958        3.58539215       -3.00194476
 C           -1.49170654        2.18632839       -4.79649401
 C           -2.56774826        2.56799169       -3.88714697
