   70
C70 / DATE: 7/ 1/2024 / Origin: Program Fullerene / C70 from database
 C            1.54319395        0.10560185        4.76037103
 C            0.74743786       -1.10274077        4.67356971
 C            1.37884037       -1.99265188        3.71278392
 C            2.65627995       -0.03094180        3.83657765
 C            2.63177706       -1.37753152        3.30108458
 C            2.60940353        1.08291876        2.90442112
 C            0.71442463        1.20161820        4.29341209
 C            1.42690502        1.86288200        3.22449386
 C           -0.62891704       -0.70706940        4.43482041
 C           -0.60858803        0.68277913        4.00506629
 C           -1.43351490       -1.58959180        3.74014885
 C            0.56471569       -2.62779942        2.77242260
 C           -0.79595836       -2.70562441        3.05694842
 C            1.01214164       -2.77461692        1.44923108
 C            3.06941733       -1.56507237        2.00328855
 C            2.33263905       -2.47178252        1.14588728
 C            2.91558221        0.85414561        1.55739866
 C            3.40006939       -0.39840923        1.19465812
 C            2.33662915        1.67957871        0.57956974
 C            0.70485607        2.36680179        2.16323346
 C            1.41025531        2.63354552        1.00554635
 C           -1.21610761        1.04373231        2.79817653
 C           -0.65806387        2.07267005        2.04132294
 C           -2.39615263       -1.05036497        2.80269529
 C           -2.14131365        0.18388148        2.20098485
 C           -1.71272728       -3.14605609        2.03165391
 C           -2.79018101       -2.16734610        1.97781004
 C            0.10685033       -2.99758042        0.39993419
 C           -1.21486823       -3.31628454        0.68334673
 C            0.44949198       -2.66042625       -0.91858220
 C            2.68100478       -2.12445469       -0.21321903
 C            3.31785564       -0.81561463       -0.18557138
 C            1.78778670       -2.38260875       -1.24127830
 C            2.38114587        1.31614453       -0.78142604
 C            2.96298028        0.10113367       -1.16601864
 C            1.71295202        2.10767133       -1.73187034
 C            0.78282842        3.44036355        0.08072108
 C            1.12895232        3.30107522       -1.31209326
 C           -1.30898009        2.50088862        0.88614084
 C           -0.66408592        3.49183323        0.14943478
 C           -2.56213804        0.42293318        0.87994189
 C           -2.19045562        1.62019503        0.23951901
 C           -3.06637397       -1.91443330        0.58971275
 C           -2.24921288       -2.82212123       -0.19789383
 C           -3.18432729       -0.60454932        0.14784823
 C           -0.56852127       -2.50435625       -1.88197495
 C           -1.90421755       -2.41891362       -1.47961866
 C           -0.25047490       -2.13047137       -3.18756531
 C            2.08267211       -1.77061426       -2.45149579
 C            2.65338470       -0.43260508       -2.41057804
 C            1.11842508       -1.81700066       -3.52120751
 C            1.43768648        1.60419131       -3.01330110
 C            1.95848442        0.37365341       -3.38852664
 C            1.13495171       -0.52412452       -4.18422320
 C            0.37481079        2.11310022       -3.76427489
 C            0.01665817        3.87006782       -2.04850634
 C           -1.14199871        3.83686179       -1.16588495
 C           -0.36938150        3.26232523       -3.29798257
 C           -2.58472588        1.85904107       -1.09015022
 C           -2.13104381        2.98415199       -1.77664969
 C           -1.76050752        2.85392644       -3.17692472
 C           -3.34008415       -0.46115480       -1.22048449
 C           -2.72432386       -1.46298964       -2.07556532
 C           -3.13784377        0.82660191       -1.83524853
 C           -1.09804352       -1.17126326       -3.87989801
 C           -0.23963683       -0.14777668       -4.46125484
 C           -0.58884419        1.19213779       -4.34385965
 C           -1.89673369        1.55749846       -3.81943243
 C           -2.30912767       -0.81149524       -3.30433117
 C           -2.67601476        0.59248651       -3.19728483
