   70
C70 / DATE: 7/ 1/2024 / Origin: Program Fullerene / C70 from database
 C            1.49983961       -0.03827867        4.75810454
 C            0.67534830       -1.22002509        4.58746827
 C            1.21818811       -1.99755269        3.48859715
 C            2.54642064       -0.08051473        3.75264689
 C            2.39193378       -1.29670888        2.99426228
 C            2.51337146        1.16600138        3.02844815
 C            0.66739823        1.11940734        4.47696200
 C            1.31969265        1.88685205        3.44698519
 C           -0.69908981       -0.78096817        4.49561805
 C           -0.67418555        0.65243180        4.22250837
 C           -1.57927068       -1.56846850        3.77340643
 C            0.33964753       -2.56674123        2.56223604
 C           -1.03685446       -2.52791809        2.81352738
 C            0.79039382       -2.79006981        1.25453582
 C            2.58705175       -1.25924383        1.62396644
 C            2.04826729       -2.29876340        0.88734125
 C            2.82124080        1.16959375        1.67053973
 C            2.86094059       -0.04719061        0.96798056
 C            2.47650942        2.32347582        0.97988383
 C            0.55414576        2.48663646        2.45564362
 C            1.27917741        3.03093002        1.40820924
 C           -1.37682580        1.15007858        3.12201095
 C           -0.74392389        2.00690661        2.20009467
 C           -2.69721486       -0.90712911        3.13428783
 C           -2.54238943        0.48673075        2.75447967
 C           -1.96713671       -2.60927043        1.69763306
 C           -3.02994197       -1.65875409        1.93962821
 C           -0.13725653       -3.12076006        0.26034132
 C           -1.45814485       -2.72170581        0.41107965
 C            0.30988839       -3.45634464       -1.00996303
 C            2.49500484       -2.45278626       -0.41207894
 C            1.70704875       -3.24810608       -1.32559825
 C            2.89328851       -0.04136424       -0.43783985
 C            2.93667465       -1.25990600       -1.11180853
 C            2.48591886        2.32470166       -0.46675237
 C            2.53311762        1.11179303       -1.14161429
 C            0.59362040        3.48632367        0.22473022
 C            1.52838387        3.33218416       -0.87959659
 C           -1.35729104        2.27971202        0.95972158
 C           -0.74094233        3.14538065        0.04297944
 C           -3.05130345        0.62316392        1.40817235
 C           -3.33509605       -0.70593523        0.89799573
 C           -2.46460817        1.53149226        0.54192307
 C           -2.10359124       -2.07972473       -0.65386537
 C           -2.94249558       -0.98531563       -0.40243685
 C           -0.47238823       -3.03384406       -2.16048866
 C           -1.64110286       -2.29252338       -1.95926274
 C            1.78753850       -2.62625567       -2.63225398
 C            2.44573052       -1.34048809       -2.47563265
 C            0.46225864       -2.65402871       -3.21662997
 C            1.97188182        1.01845591       -2.42304642
 C            1.86657454       -0.22016019       -3.06022010
 C            1.02753003        3.28196783       -2.16651299
 C            1.36787762        2.13885298       -2.99808464
 C           -1.28614145        3.30101281       -1.23281303
 C           -0.38683513        3.54365559       -2.35035715
 C           -2.69087487        1.35813969       -0.82127478
 C           -2.94432306        0.07042676       -1.30428536
 C           -2.30128786        2.36918241       -1.68510016
 C           -2.11747511       -1.47867518       -2.98895361
 C           -2.76722054       -0.22607115       -2.64731353
 C            0.11542582       -1.62790811       -4.08011540
 C            0.91092188       -0.40636271       -4.06328211
 C           -1.27587051       -1.23468315       -4.14623997
 C            0.28494112        1.95900504       -3.94941224
 C           -0.83977018        2.75343389       -3.48049704
 C           -2.06558046        2.07888478       -3.09027651
 C           -2.30291758        0.79815623       -3.56699199
 C            0.04025467        0.69027138       -4.45358120
 C           -1.32409797        0.18530519       -4.44976868
