   70
C70 / DATE: 7/ 1/2024 / Origin: Program Fullerene / C70 from database
 C            1.51837481        0.07990009        4.43895411
 C            0.72146967       -1.10921356        4.20031551
 C            1.50745139       -1.99685259        3.37424285
 C            2.63341100        0.05690150        3.50601406
 C            2.66836691       -1.25108246        2.90720666
 C            2.51098146        1.19775657        2.62856404
 C            0.69886505        1.22644743        4.10732263
 C            1.42351511        2.01693496        3.13431495
 C           -0.57262633       -0.69596101        3.70124367
 C           -0.62138171        0.75452579        3.73451984
 C           -1.08870910       -1.35295467        2.59251031
 C            0.85492241       -2.80566332        2.44926964
 C           -0.48771051       -2.53621186        2.14507715
 C            1.66092728       -3.39017268        1.47490237
 C            3.00977598       -1.37572083        1.56767710
 C            2.83108639       -2.64711276        1.04114916
 C            2.62202143        1.01954252        1.24670564
 C            2.88540788       -0.25687272        0.71575282
 C            2.10760980        2.02239260        0.41631126
 C            0.68207541        2.72290492        2.20592521
 C            1.28199861        3.00129175        0.98701309
 C           -1.27111483        1.42361002        2.70401271
 C           -0.70870656        2.61100246        2.23960784
 C           -1.99841064       -0.68461115        1.77036440
 C           -2.12311287        0.71105521        1.85628883
 C           -2.69481344       -1.40284895        0.79727720
 C           -1.11325233       -3.25875818        1.13423390
 C           -2.26226569       -2.68271201        0.45513400
 C            1.06432351       -4.00815777        0.30461070
 C           -0.30771972       -3.93513765        0.13001236
 C            3.00425234       -2.86111615       -0.37143541
 C            1.93259371       -3.73551018       -0.82705862
 C            2.87262800       -0.43156620       -0.67887139
 C            3.02288165       -1.70476095       -1.23337910
 C            2.15710539        1.86194148       -0.97138060
 C            2.45051385        0.60958621       -1.50915268
 C            1.62686771        2.84491327       -1.80871437
 C            0.68089976        3.96863812        0.19416191
 C            0.90637036        3.95932882       -1.23245713
 C           -1.44548573        3.37878638        1.34912958
 C           -0.72761929        4.23581066        0.41680053
 C           -2.85957032        1.41464067        0.89494773
 C           -2.52901643        2.74249278        0.62070561
 C           -3.54908807       -0.73427879       -0.07039172
 C           -3.55752996        0.71357293       -0.08314363
 C           -3.64154023       -1.18274589       -1.44965442
 C           -2.17702146       -3.05872739       -0.95006238
 C           -0.84048005       -3.57108348       -1.17366622
 C           -2.74147193       -2.22647530       -1.90096900
 C            1.36678650       -3.14124241       -2.02637646
 C            2.25322727       -2.05935368       -2.41199761
 C           -0.01281345       -2.96086500       -2.11740610
 C            2.06773287        0.32552510       -2.82224308
 C            1.75172070       -1.03883304       -3.19325932
 C            0.88487419        2.44044672       -2.98902944
 C            1.08286262        1.16441372       -3.47538133
 C           -0.39232782        4.03005414       -1.89057423
 C           -1.40136838        4.16932052       -0.86809022
 C           -2.42698257        3.15454434       -0.77029682
 C           -0.47564890        2.90369176       -2.79992055
 C           -3.43478325        1.14623153       -1.46859985
 C           -3.45191721       -0.02705364       -2.30831977
 C           -2.55184882        2.17927634       -1.75506977
 C           -1.49915057        1.96014092       -2.66633415
 C           -1.88582366       -1.65658562       -2.93012330
 C           -0.52446932       -1.96239210       -2.95524076
 C            0.34594369       -1.05929122       -3.56549832
 C           -0.07449101        0.32422443       -3.73782043
 C           -2.30523925       -0.27843136       -3.14797578
 C           -1.33433336        0.70850992       -3.28238537
