   70
C70 / DATE: 7/ 1/2024 / Origin: Program Fullerene / C70 from database
 C            1.14097307        0.08150635        4.27029762
 C            2.44559341       -0.25743948        3.75044845
 C            2.47427238       -1.69891109        3.59273443
 C            0.33168430       -1.13094558        4.25197232
 C            1.09634114       -2.14835439        3.56907275
 C           -0.96238466       -0.77214911        3.72114238
 C            0.37095856        1.10573291        3.59514526
 C           -1.00831250        0.67702596        3.65674494
 C            0.82810014        1.65114787        2.39849861
 C            2.85251242        0.31280865        2.48261300
 C            1.97268607        1.12809946        1.78011504
 C            3.29211522       -1.99240029        2.43843405
 C            3.56316826       -0.72517359        1.76134101
 C            2.92100226       -3.07631261        1.66066706
 C            0.60005532       -2.71171568        2.39144052
 C            1.49852057       -3.40422173        1.57810747
 C           -1.48050492       -1.48430982        2.64671097
 C           -0.60284451       -2.23065982        1.84327847
 C           -2.64848891       -0.97584855        2.09022806
 C           -1.90592291        1.24910322        2.76879184
 C           -2.93028318        0.43747606        2.28956362
 C           -0.09347910        2.35305944        1.62170429
 C           -1.45576085        2.28762088        1.95535987
 C            0.29732341        2.81822757        0.36494759
 C            2.12744453        1.25697499        0.40186102
 C            1.39884918        2.23854269       -0.26562533
 C            3.57926250       -0.69786088        0.36588747
 C            2.91902512        0.34096867       -0.31512968
 C            3.45731210       -3.14010532        0.32061938
 C            3.85761961       -1.89311694       -0.30069899
 C            1.17949684       -3.60218382        0.17748604
 C            2.43822910       -3.72680314       -0.52837444
 C           -0.82597441       -2.31892695        0.45684414
 C            0.14723442       -2.85767233       -0.38147836
 C           -2.97161226       -1.27625573        0.71375476
 C           -1.97253226       -1.77052096       -0.11285362
 C           -3.73718741        0.89424232        1.16938377
 C           -3.84365236       -0.21580212        0.23390928
 C           -2.39133990        2.93657473        1.15695473
 C           -3.54578619        2.18521896        0.69008471
 C           -0.55414123        3.65184592       -0.35595652
 C           -1.93244350        3.77494891        0.06912557
 C           -0.54906428        3.59450685       -1.80660071
 C            1.58208454        2.40982341       -1.63048369
 C            0.49894392        2.94445611       -2.44057307
 C            2.88619710        0.33753602       -1.71930572
 C            2.19782201        1.34350359       -2.38754767
 C            3.53308364       -2.02192116       -1.70222194
 C            2.56409585       -3.10408655       -1.82589198
 C            2.98311362       -0.87632415       -2.38801182
 C            0.18439716       -2.47705119       -1.73048760
 C            1.38152308       -2.53534785       -2.43893667
 C            1.81935568       -1.33863597       -3.12170513
 C           -1.97383147       -1.45050352       -1.47102712
 C           -0.80441861       -1.62044121       -2.21407776
 C           -3.90004983        0.03512081       -1.12869288
 C           -3.03320901       -0.72524355       -2.01079888
 C           -3.71163853        2.45925215       -0.72779295
 C           -2.78163405        3.51981890       -1.08393649
 C           -1.91835433        3.36030150       -2.24316788
 C           -3.92668693        1.40810150       -1.61305965
 C           -2.79571373        0.08230974       -3.18852498
 C           -2.18903115        2.35454778       -3.16514503
 C           -3.28104921        1.42615085       -2.91589798
 C            0.21926697        1.97571808       -3.49032274
 C            1.23888489        0.94240411       -3.40547963
 C            0.86038969       -0.39611976       -3.45863945
 C           -0.47869117       -0.70945835       -3.23166241
 C           -1.09360829        1.59964089       -3.75092303
 C           -1.43930642        0.18850532       -3.68423866
