   70
C70 / DATE: 7/ 1/2024 / Origin: Program Fullerene / C70 from database
 C            1.37705492       -0.19092843        4.53987799
 C            2.63689479       -0.43529078        3.86454922
 C            2.60582507       -1.78964153        3.34213570
 C            0.52867752       -1.35478568        4.34050605
 C            1.30577904       -2.36367945        3.64526350
 C           -0.71902867       -0.90165556        3.74851637
 C            0.60886436        0.98449014        4.17459071
 C           -0.73038908        0.54959848        3.81142846
 C            1.21104108        1.98058607        3.41765621
 C            3.03796686        0.45120302        2.78476202
 C            2.41538501        1.68282302        2.64841185
 C            3.04473244       -1.74592240        1.95659875
 C            3.26062923       -0.35692809        1.59720271
 C            2.42856730       -2.57271275        1.02778141
 C            0.68075382       -3.12146919        2.66641818
 C            1.41127034       -3.42963330        1.45200322
 C           -1.20309829       -1.53837818        2.60623393
 C           -0.67160713       -2.77317271        2.24919273
 C           -1.92264288       -0.79487134        1.66733794
 C           -1.42755461        1.25168187        2.83589429
 C           -2.23982636        0.53117521        1.96017706
 C            0.36795754        2.82276619        2.59019371
 C           -0.98541637        2.52731071        2.46821373
 C            2.22666469        2.22734907        1.31613195
 C            1.11030126        3.14715538        1.38461856
 C            2.81130045        0.08918786        0.35371894
 C            2.34421410        1.39959268        0.20370567
 C            2.47163146       -2.21022853       -0.31608841
 C            2.56007422       -0.84899906       -0.64994924
 C            1.94541750       -3.11254202       -1.23291770
 C            0.41737676       -3.87083884        0.48952489
 C           -0.84039020       -3.25928496        0.89068345
 C            0.75652221       -3.85176152       -0.85207747
 C           -2.16069286       -1.30435476        0.38120847
 C           -1.54024403       -2.48921088       -0.03316692
 C           -2.94203025       -0.57770848       -0.52577337
 C           -3.11481283        1.22063214        1.13710451
 C           -3.42928472        0.67508091       -0.16860816
 C           -1.69581261        3.22429412        1.49728785
 C           -2.92524014        2.64847971        0.98964884
 C            0.39194297        3.41189959        0.22670068
 C           -0.95669016        3.74683546        0.35814930
 C            1.70173105        1.77049698       -0.97868509
 C            0.84209069        2.88229906       -0.98285402
 C            2.18072564       -0.40087131       -1.91927202
 C            1.78163504        0.92563030       -2.08975763
 C            1.78413087       -2.71258021       -2.61342303
 C            1.94933403       -1.31686659       -2.94434293
 C           -0.26470400       -3.49349891       -1.81595713
 C           -1.36410527       -2.74669142       -1.39577724
 C            0.43982623       -3.09354653       -3.02002205
 C           -2.87796729       -0.88207460       -1.88079317
 C           -2.05862267       -1.98860516       -2.33140788
 C           -2.74010288        0.20252500       -2.84126632
 C           -3.36163551        1.75948816       -1.13934840
 C           -3.02767512        2.97596465       -0.42193006
 C           -1.83273790        3.70324536       -0.80388134
 C           -2.77607092        1.51795466       -2.37997205
 C            0.15004489        3.22488751       -2.13944614
 C           -1.28000875        3.45380785       -2.05070006
 C           -1.91192278        2.47387340       -2.92229327
 C            1.23286101        1.31696860       -3.30905787
 C            0.39095739        2.49065329       -3.36237517
 C           -0.90306758        2.07712692       -3.88958845
 C            0.95186090       -1.01193915       -3.95398613
 C           -0.10120362       -2.00763484       -3.81671670
 C           -1.40281161       -1.58832128       -3.57065484
 C           -1.76981950       -0.20920572       -3.84650138
 C            0.60921100        0.31596921       -4.15393970
 C           -0.79403708        0.68280159       -4.27089750
