   70
C70 / DATE: 7/ 1/2024 / Origin: Program Fullerene / C70 from database
 C            1.45000242        0.06077661        4.86647773
 C            0.66144084       -1.15247571        4.71521618
 C            1.51698948       -2.15332154        4.12775216
 C            2.66266826       -0.10637501        4.08722863
 C            2.77300458       -1.50944201        3.76398718
 C            2.62983568        0.85195185        2.99588642
 C            0.69609714        1.14913378        4.27396236
 C            1.46976856        1.70672881        3.18569429
 C           -0.56504232       -0.80069429        4.02478576
 C           -0.62048932        0.64888159        3.95789856
 C           -0.98981822       -1.53319815        2.90718221
 C            1.04129768       -2.86479776        2.95875779
 C           -0.23890910       -2.63377155        2.45893558
 C            3.06000552       -1.87206429        2.39221185
 C            2.14666261       -2.93745541        2.02063564
 C            2.94218782        0.44162415        1.70067026
 C            3.33024101       -0.88449248        1.45111698
 C            2.50818790        1.23837895        0.63918547
 C            0.78200058        2.14269505        2.05704816
 C            1.43193727        2.11455338        0.83257135
 C           -1.27669599        1.19494660        2.87196871
 C           -0.61345918        2.12238228        2.05952343
 C           -1.94141339       -0.93647511        2.06188025
 C           -2.24727296        0.41042315        2.27785572
 C           -2.27726322       -1.53150665        0.83725622
 C           -0.53013745       -3.19907963        1.22511405
 C           -1.63976021       -2.69477096        0.44398912
 C            1.86533690       -3.12866930        0.66918168
 C            0.56719112       -3.48745977        0.31042302
 C            3.43037231       -1.31204869        0.13381316
 C            2.68082244       -2.49480213       -0.26780801
 C            2.94879126        0.95203830       -0.65301576
 C            3.34386455       -0.34566039       -0.94240778
 C            2.53107065        1.75689840       -1.70600055
 C            0.80118620        2.68330712       -0.26688159
 C            1.52000554        2.76239700       -1.45089734
 C           -1.30142490        2.59839947        0.93570282
 C           -0.59719069        2.81913708       -0.26329637
 C           -3.11971640        1.06019916        1.42716324
 C           -2.66719134        2.32602577        0.88639547
 C           -3.00594199       -0.81059562       -0.11204401
 C           -3.68025500        0.32643734        0.31933189
 C           -2.76842644       -1.02534601       -1.48209370
 C           -1.31334032       -2.87047041       -0.95688233
 C            0.08890090       -3.25246615       -1.04281111
 C           -1.82368588       -1.97314853       -1.88555479
 C            2.20903225       -2.28058204       -1.62766797
 C            2.76259383       -1.01721521       -2.09326614
 C            0.91017212       -2.62994156       -1.97959213
 C            2.19598203        1.12706427       -2.97404729
 C            2.05867205       -0.25905108       -3.02290876
 C            0.82976884        3.01218643       -2.69392287
 C            1.22945913        1.98041024       -3.64026158
 C           -1.29244128        3.07423597       -1.46452009
 C           -0.61180417        3.06398843       -2.67956437
 C           -3.40498517        2.55093764       -0.33337176
 C           -4.12944884        1.32207202       -0.63209789
 C           -2.67616941        2.92548358       -1.51983439
 C           -3.29099897       -0.15686913       -2.44342255
 C           -3.97653587        1.05243284       -2.04107046
 C           -3.25014253        2.16973333       -2.62020599
 C            0.02476716        1.39121986       -4.19079695
 C           -1.09464171        2.20759095       -3.75325006
 C           -2.48083146        0.18458236       -3.59921686
 C           -2.35485049        1.63620030       -3.63206241
 C           -1.11279600       -1.77496590       -3.06728323
 C            0.32177582       -2.00567873       -3.07456686
 C            0.95322032       -0.82951999       -3.65561377
 C           -1.38077232       -0.60927562       -3.89369874
 C           -0.10146020        0.00823274       -4.21486691
