   70
C70 / DATE: 7/ 1/2024 / Origin: Program Fullerene / C70 from database
 C            1.55538936        0.02465659        4.46278721
 C            0.75125438       -1.17347819        4.31682723
 C            1.31392141       -1.97377209        3.24148429
 C            2.60542564       -0.02663252        3.46367722
 C            2.47878369       -1.26843435        2.73366116
 C            2.55593138        1.20298182        2.70678488
 C            0.70717042        1.16180231        4.14840921
 C            1.34901062        1.91468953        3.08835335
 C           -0.63244796       -0.76019681        4.20755976
 C           -0.63533145        0.66641572        3.91900746
 C           -1.48773170       -1.57250531        3.48594140
 C            0.44285092       -2.58441185        2.33625244
 C           -0.91660103       -2.61640806        2.64348219
 C            0.85040875       -2.76199197        1.00825535
 C            2.68428838       -1.25144740        1.36350782
 C            2.09023907       -2.24771178        0.60663795
 C            2.86589140        1.16313748        1.35626243
 C            3.09166456       -0.07003362        0.72883866
 C            2.43283122        2.22377772        0.57820048
 C            0.56245821        2.44935101        2.07090041
 C            1.18708486        2.79508952        0.86827064
 C           -1.33502062        1.13561403        2.80838309
 C           -0.81422441        2.20563233        2.07537303
 C           -2.53735398       -0.94898693        2.70660663
 C           -2.37481181        0.36531484        2.27329198
 C           -1.88200178       -2.88931547        1.59494953
 C           -2.98605774       -1.95217867        1.76559506
 C           -0.06295956       -3.23685073        0.05320878
 C           -1.43511408       -3.19247893        0.31376761
 C            0.36101364       -3.48385920       -1.25133213
 C            2.53532634       -2.41570203       -0.69235218
 C            1.71279013       -3.13700927       -1.63688250
 C            3.33975029       -0.09182653       -0.65508749
 C            3.10854149       -1.26923224       -1.37347773
 C            2.97555932        2.33564073       -0.68776806
 C            3.36608962        1.11361569       -1.36401308
 C            2.35010580        3.21121495       -1.65410008
 C            0.43949226        3.42160641       -0.13630362
 C            1.02677165        3.71779039       -1.36493144
 C           -1.59620575        2.77696253        1.08411956
 C           -0.95012062        3.43168444       -0.04132129
 C           -3.05288083        0.79971738        1.12808647
 C           -2.73801179        2.03859881        0.57639537
 C           -3.69748491       -1.54113955        0.65161019
 C           -3.73534060       -0.12292043        0.32931780
 C           -2.33415141       -3.09315487       -0.74825547
 C           -3.52134091       -2.27306901       -0.58863194
 C           -0.50205448       -3.10346933       -2.35537196
 C           -1.83651987       -2.85726186       -2.09155796
 C            1.63460256       -2.34421533       -2.85452150
 C            2.47600403       -1.18024192       -2.68211598
 C            0.23558931       -2.13467902       -3.14464763
 C            2.76991875        1.15588751       -2.68917160
 C            2.28977134        2.50141531       -2.92229299
 C            2.02246704        0.06165920       -3.10897155
 C            0.23772089        3.56478942       -2.57524808
 C            0.96174143        2.67243812       -3.46407512
 C           -1.75190347        3.17215206       -1.22900684
 C           -2.74746018        2.18233530       -0.87045433
 C           -1.11957265        3.06738673       -2.45767714
 C           -3.66316929        0.00912132       -1.11919472
 C           -3.54528001       -1.31833237       -1.68501653
 C           -2.41174861       -1.60060574       -2.54047720
 C           -2.90425324        1.04395065       -1.65270711
 C           -0.23709580       -0.82844950       -3.23413144
 C            0.66200408        0.22442584       -3.43146630
 C            0.13913428        1.49549393       -3.66732979
 C           -1.19262836        1.80220244       -3.17451255
 C           -1.56604889       -0.55300355       -2.89479701
 C           -1.96607073        0.76645437       -2.65660428
