   70
C70 / DATE: 7/ 1/2024 / Origin: Program Fullerene / C70 from database
 C            1.28258403       -0.00310493        4.39096080
 C            2.57900927       -0.32350007        3.84420913
 C            2.54547857       -1.71350325        3.41694565
 C            0.44174354       -1.18490032        4.26000714
 C            1.15653956       -2.13841705        3.44154126
 C           -0.86236214       -0.73702402        3.82016882
 C            0.54288975        1.10630221        3.82455762
 C           -0.85145869        0.71369166        3.85562674
 C            1.02535591        1.77674989        2.69857535
 C            3.07157743        0.45295934        2.72673465
 C            2.27941508        1.44937760        2.15165514
 C            3.28300895       -1.80639939        2.16800416
 C            3.77373160       -0.47153871        1.85712664
 C            2.76656044       -2.59773258        1.14892223
 C            0.57153322       -2.59781727        2.26493791
 C            1.39633538       -3.07587481        1.24915181
 C           -1.47770845       -1.36481811        2.74327324
 C           -0.76642439       -2.30188713        1.97636676
 C           -2.60569642       -0.75209763        2.19633444
 C           -1.74419510        1.39401226        3.04391792
 C           -2.73135574        0.63320476        2.29403688
 C            0.13743255        2.58084911        1.97634922
 C           -1.23750009        2.42755203        2.15684279
 C            0.58118642        3.25406629        0.84581055
 C            2.63930851        1.93480127        0.89136881
 C            1.88270898        2.93341780        0.29584650
 C            3.97177904       -0.10533911        0.53442638
 C            3.52406758        1.20745575        0.09989700
 C            3.00477801       -2.23171700       -0.23856767
 C            3.65900097       -1.04576710       -0.53256978
 C            0.87202243       -3.19800006       -0.09818348
 C            1.83027222       -2.60353976       -1.01182222
 C           -1.31547501       -2.75250200        0.77397275
 C           -0.47413932       -2.97079880       -0.31897725
 C           -3.29910723       -1.40354094        1.18556593
 C           -2.67090894       -2.54300951        0.54733005
 C           -3.89087182       -0.60354720        0.12763107
 C           -3.06666245        1.39781489        1.10152782
 C           -2.11717552        2.48788031        0.99777800
 C           -3.45434126        0.71059457       -0.04118286
 C           -0.33726838        3.44449500       -0.26616473
 C           -1.57728651        2.80990779       -0.23866578
 C            1.78495563        2.99236986       -1.15780609
 C            0.44404503        3.46269186       -1.48820463
 C            3.30065345        1.13424907       -1.33281056
 C            3.23384517       -0.27445446       -1.68590720
 C            2.40604994        2.01191732       -1.93730226
 C            1.36682738       -1.76533077       -2.02775876
 C            2.17364149       -0.71275396       -2.47467501
 C           -0.87523428       -2.55948654       -1.58680796
 C            0.00944515       -1.81246509       -2.37973151
 C           -3.18029917       -2.61673318       -0.81296167
 C           -4.05676980       -1.47357488       -1.01677123
 C           -2.22576582       -2.62793422       -1.90269440
 C           -3.78704726       -0.94191947       -2.33212565
 C           -2.75480492       -1.77096666       -2.93801703
 C           -3.00635971        1.15025284       -1.29607589
 C           -2.06681564        2.18849511       -1.39112361
 C           -3.34127893        0.43262149       -2.44654207
 C           -0.15279998        3.06416552       -2.67278043
 C           -1.48769846        2.48823951       -2.62753949
 C            1.82119743        1.61353219       -3.13727460
 C            1.66353120        0.18915761       -3.39786741
 C            0.62922217        2.28836962       -3.61297333
 C           -0.47160199       -1.01875267       -3.43177509
 C           -1.84468519       -0.88293138       -3.62623117
 C           -2.42997560        0.44838713       -3.57129743
 C           -1.59042539        1.53731090       -3.72349322
 C            0.34237109       -0.02055193       -3.95278323
 C           -0.24260496        1.28733935       -4.19993651
