   70
C70 / DATE: 7/ 1/2024 / Origin: Program Fullerene / C70 from database
 C            1.13142085       -0.01254270        5.20504371
 C            0.36953632       -1.21823486        4.92904051
 C            1.26479378       -2.17318152        4.32453674
 C            2.40535814       -0.13302790        4.51597781
 C            2.52884714       -1.49471487        4.05746307
 C            2.47574268        0.92774573        3.53482358
 C            0.41467200        1.10935646        4.61927846
 C            1.29909395        1.76855393        3.69602196
 C           -0.81427626       -0.83128051        4.19356812
 C           -0.83577976        0.62157924        4.09929261
 C           -1.22901716       -1.56800566        3.08352587
 C            0.86142371       -2.81509793        3.08727997
 C           -0.34399737       -2.46712562        2.46309308
 C            2.84785421       -1.73061938        2.66133189
 C            2.06271999       -2.88643309        2.28023869
 C            2.92022166        0.66295322        2.23739079
 C            2.94162874       -0.65917591        1.76368910
 C            2.76866122        1.69839322        1.32444672
 C            0.76872338        2.34430851        2.54943384
 C            1.69204994        2.64533606        1.56229215
 C           -1.34951081        1.18446175        2.93524776
 C           -0.55766719        2.05904965        2.16440791
 C           -2.24623902       -1.00026217        2.33086447
 C           -2.34196552        0.45138591        2.30478227
 C           -2.50572759       -1.47727812        0.99039077
 C           -0.49909908       -2.79406577        1.10436821
 C           -1.56573645       -2.27801135        0.35699093
 C            1.91478419       -3.14714774        0.93643909
 C            0.57429575       -3.37273599        0.43683065
 C            2.77996275       -0.92549631        0.39306496
 C            2.53072296       -2.23202882       -0.00551829
 C            2.78091849        1.41500645       -0.09700247
 C            2.58375556        0.11571640       -0.52148094
 C            1.22558635        3.10917862        0.28565024
 C            2.04312772        2.47881583       -0.73740112
 C           -0.99911732        2.45263053        0.88205452
 C           -0.13897281        3.20407705        0.06330358
 C           -2.79345030        0.84032607        0.99345177
 C           -3.09314848       -0.37235457        0.25926700
 C           -2.15392113        1.87177048        0.32489471
 C           -2.95249465       -0.34268218       -1.11461430
 C           -1.53554372       -2.29757767       -1.04975387
 C           -2.41141122       -1.45427790       -1.75728318
 C            0.66815114       -3.22773028       -0.99416535
 C            1.87615827       -2.46520680       -1.27143250
 C           -0.46063576       -2.90198122       -1.72179048
 C            1.95811904       -0.11874563       -1.75945921
 C            1.78550185       -1.43821014       -2.20199428
 C            1.45114753        2.26218960       -1.97045101
 C            1.40240238        0.95693327       -2.48976461
 C           -0.51456722        3.49384211       -1.24309072
 C            0.43099707        3.14767879       -2.29205567
 C           -2.41263076        2.00734968       -1.03952255
 C           -2.90260298        0.89767404       -1.74707116
 C           -1.80506231        3.05575651       -1.71385000
 C           -3.04388866        0.93677876       -3.13192105
 C           -2.43880334       -1.48988128       -3.15088149
 C           -2.82980103       -0.29069225       -3.87877736
 C           -0.21239723       -2.53778705       -3.03703307
 C            0.94422400       -1.68693673       -3.27825673
 C           -1.30137137       -2.04713913       -3.84285462
 C            0.66807721        0.70988941       -3.66548824
 C           -1.80180252       -0.02130381       -4.87768749
 C            0.50946633       -0.59606393       -4.11653099
 C           -0.75963649       -1.00869628       -4.69934609
 C           -0.31599290        2.95181939       -3.50772121
 C           -1.72779969        3.04448871       -3.16269087
 C           -2.41664713        2.00071155       -3.88754483
 C           -0.13066723        1.71329132       -4.22502604
 C           -1.43876386        1.37468484       -4.76031572
