   70
C70 / DATE: 7/ 1/2024 / Origin: Program Fullerene / C70 from database
 C            1.35828854       -0.19275920        4.71663337
 C            2.63216717       -0.38432164        4.04978997
 C            2.60636639       -1.68658071        3.40983822
 C            0.50981471       -1.32540810        4.39571980
 C            1.32197396       -2.30429672        3.69516166
 C           -0.69268152       -0.82096472        3.74533766
 C            0.61016302        1.01183649        4.42591869
 C           -0.66564036        0.61973553        3.83202392
 C            1.28720414        2.09483005        3.88349264
 C            3.05306926        0.59284516        3.05856553
 C            2.47682337        1.85369079        3.06830710
 C            3.00434176       -1.51477018        2.02031404
 C            3.19734187       -0.09513957        1.78617660
 C            2.36384729       -2.26830500        1.04304578
 C            0.72093697       -3.03803847        2.68735779
 C            1.44348995       -3.22793850        1.44278025
 C           -1.12293093       -1.42867398        2.57273762
 C           -0.63976562       -2.70051189        2.30180682
 C           -1.63973716       -0.65149624        1.52326665
 C           -1.19277275        1.37864679        2.79255785
 C           -1.71125185        0.74565658        1.65124202
 C            0.50021659        3.09483861        3.19769346
 C           -0.81314206        2.71155999        2.71323017
 C            2.27502805        2.53301761        1.80093090
 C            1.26518749        3.53117804        2.04294491
 C            2.67425561        0.46873487        0.62290890
 C            2.21378861        1.78972992        0.61915747
 C            2.24521143       -1.74633776       -0.24360202
 C            2.36123404       -0.36505270       -0.44295547
 C            1.65875600       -2.53039343       -1.23961001
 C            0.45750282       -3.67203128        0.48281046
 C           -0.84302215       -3.25864805        0.99071456
 C            0.69186234       -3.47999972       -0.87092029
 C           -1.99849454       -1.26783355        0.30975441
 C           -1.70431254       -2.62670089        0.10744684
 C           -2.47905189       -0.48772016       -0.75597104
 C           -2.17630891        1.52311756        0.57863118
 C           -2.68511639        0.88933390       -0.56819263
 C           -0.99785877        3.41071904        1.47144616
 C            0.32094237        3.78503585        0.98853599
 C           -1.86641460        2.89615394        0.52726542
 C            1.45743905        2.26566756       -0.47255662
 C            0.63716701        3.39696363       -0.30576399
 C            1.93031000        0.20062457       -1.63676161
 C            1.30981878        1.45134399       -1.61195079
 C            1.70376262       -2.05136279       -2.54932568
 C            1.80735302       -0.61622133       -2.75289017
 C            0.79014297       -2.57873709       -3.54668051
 C           -0.42387168       -3.65039887       -1.68070704
 C           -1.68723238       -3.12885067       -1.18479840
 C           -0.33420525       -3.36212865       -3.09259768
 C           -2.71435138       -1.07735509       -2.01493109
 C           -2.29870861       -2.37916102       -2.24950069
 C           -1.55135271       -2.66462258       -3.46779182
 C           -2.87990700       -0.27638332       -3.13794681
 C           -3.12141917        1.67962111       -1.63727487
 C           -3.15552652        1.12732499       -2.97104726
 C           -1.73525446        3.48185533       -0.71937587
 C           -0.37811035        3.62200885       -1.22259650
 C           -2.55610673        2.99768397       -1.79091412
 C            0.42037838        1.80908371       -2.63853003
 C           -2.16571661        1.84926769       -3.76475185
 C           -0.34221700        2.96301479       -2.50352841
 C           -1.71422615        2.96468145       -2.97328981
 C            0.88841019       -0.24177001       -3.80981570
 C            0.27090763       -1.46035206       -4.31479231
 C           -1.18109574       -1.55646488       -4.32883490
 C           -1.90942920       -0.38389375       -4.21597854
 C            0.10021978        0.89117489       -3.64901818
 C           -1.18849021        0.87064733       -4.19034212
