   70
C70 / DATE: 7/ 1/2024 / Origin: Program Fullerene / C70 from database
 C            1.27072948       -0.03553060        4.33950884
 C            2.53382653       -0.26855655        3.68179182
 C            2.53899783       -1.65073865        3.24394741
 C            0.43427056       -1.21381516        4.13482271
 C            1.16531264       -2.12177096        3.28803273
 C           -0.86042685       -0.74613840        3.69361383
 C            0.47983829        1.10720965        3.93680195
 C           -0.89600072        0.66668355        4.01553809
 C            0.86472916        1.88292364        2.84028191
 C            2.87761052        0.54444095        2.53393665
 C            2.01391185        1.54840731        2.10084680
 C            3.23851370       -1.70607133        1.97385213
 C            3.47124228       -0.33479515        1.54135342
 C            2.79283597       -2.62232276        1.03652314
 C            0.58923362       -2.58426446        2.10926565
 C            1.44654086       -3.15718852        1.17994780
 C           -1.36713283       -1.16380701        2.46152586
 C           -0.65465342       -2.08704811        1.67875291
 C           -2.39765141       -0.41283878        1.88624901
 C           -1.85294091        1.44153061        3.39702525
 C           -2.78148365        0.78197060        2.50114732
 C           -0.09068777        2.74307284        2.28520004
 C           -1.41856512        2.64291595        2.70532948
 C            0.20707872        3.44964529        1.12120869
 C            2.16513683        2.02648758        0.80025703
 C            1.41221749        3.11869307        0.38752681
 C            3.32553688       -0.01015842        0.19380388
 C            2.86708019        1.26788862       -0.14269408
 C            2.98349731       -2.32739830       -0.36938100
 C            3.30258260       -1.03453105       -0.76256696
 C            0.95616423       -3.46848068       -0.13936500
 C            1.96241913       -3.05239336       -1.10548023
 C           -1.14412240       -2.43484186        0.40940605
 C           -0.37541824       -3.24937660       -0.44075618
 C           -2.82637602       -0.69889823        0.58455976
 C           -2.32189036       -1.83430691       -0.06151755
 C           -3.56996879        0.25187912       -0.14225190
 C           -3.36649510        1.83128134        1.69950559
 C           -2.48785778        2.98855678        1.78596635
 C           -3.60378428        1.56058793        0.30635570
 C           -0.83914383        3.71970870        0.14028893
 C           -2.15215317        3.39891119        0.43531007
 C           -2.89683842        2.55384976       -0.48393301
 C            1.12958270        3.30560701       -1.02621600
 C           -0.31331347        3.37024561       -1.16433017
 C            2.88101877        1.67232929       -1.47453088
 C            1.85098119        2.57625242       -1.95242645
 C            3.15108505       -0.71848954       -2.10711370
 C            3.07487175        0.67280204       -2.50389847
 C            1.54390660       -2.57799114       -2.34961072
 C            2.18678707       -1.46590140       -2.90386463
 C           -0.71160095       -3.35667287       -1.78103793
 C            0.24740732       -2.88449044       -2.76858248
 C           -2.84861040       -2.20470632       -1.29931173
 C           -2.03043035       -2.96550980       -2.21460058
 C           -3.66749941        0.11156152       -1.51611659
 C           -3.51385839       -1.19828943       -2.09428704
 C           -2.32608996        2.14160700       -1.69217047
 C           -0.97607548        2.42018625       -1.94386773
 C           -2.92912951        1.06145102       -2.33572724
 C            1.12418360        1.87224942       -2.99244635
 C            1.98579836        0.80907250       -3.45960524
 C            1.40849450       -0.50046164       -3.66815971
 C           -0.23221641        1.61162388       -2.81467946
 C           -0.46058032       -1.94033207       -3.61265311
 C           -1.87689929       -2.17761159       -3.42977375
 C           -2.75656396       -1.03845334       -3.32389250
 C           -2.17339580        0.29104473       -3.30245296
 C            0.02773876       -0.64171037       -3.70533990
 C           -0.79130756        0.44321463       -3.34484189
