   70
C70 / DATE: 7/ 1/2024 / Origin: Program Fullerene / C70 from database
 C            1.18107802       -0.05446962        4.87800608
 C            2.50297099       -0.40461805        4.40366252
 C            2.42061194       -1.74140957        3.82906002
 C            0.35643480       -1.24738671        4.77659291
 C            1.02786272       -2.14711342        3.86306691
 C           -0.98153948       -0.81221869        4.45375313
 C            0.45375441        1.01315037        4.21109405
 C           -0.93719226        0.63283775        4.27752637
 C            0.95197848        1.56023304        3.02448871
 C            3.12418275        0.45512596        3.41901814
 C            2.31462845        1.45912882        2.74582033
 C            3.10062484       -1.71640553        2.54521964
 C            3.68746876       -0.40126616        2.39054214
 C            2.47349603       -2.27937773        1.43902607
 C            0.41775175       -2.50869059        2.66253824
 C            1.23338190       -2.90441914        1.60665355
 C           -1.62771239       -1.35848356        3.27591844
 C           -0.91914388       -2.16995712        2.39769472
 C           -1.78201757        0.94737899        3.15205539
 C           -2.41170847       -0.28300577        2.71887123
 C            0.07171782        1.97118505        2.00781461
 C           -1.31189479        1.79681477        2.15890548
 C            0.58510686        2.31832204        0.74623325
 C            2.75355239        1.48863243        1.36674298
 C            3.51114302        0.27411812        1.11876731
 C            1.86569444        1.90180197        0.38761337
 C            2.83520728       -1.82459939        0.16921977
 C            3.17446329       -0.47894298       -0.00193027
 C            2.41681460       -2.55830847       -0.93397369
 C            0.63402337       -3.51101544        0.51150810
 C            1.34787495       -3.52085639       -0.74916298
 C           -1.41943112       -2.32946624        1.10056445
 C           -0.75449034       -3.19021309        0.23219397
 C           -2.78243212       -0.34090848        1.38620894
 C           -2.32958499       -1.39401823        0.58212942
 C           -2.11521051        1.91348875        1.03043381
 C           -3.01546293        0.87546844        0.76662208
 C           -0.28742498        2.71796697       -0.27398569
 C           -1.66132382        2.69107214       -0.02650253
 C            0.17846888        2.74468898       -1.59732649
 C            2.07291928        1.45368356       -0.90907018
 C            2.67243285        0.20277054       -1.10987189
 C            1.34427798        2.04382036       -1.93089109
 C            2.17826337       -1.87533310       -2.19274124
 C            2.42672367       -0.50801786       -2.28724891
 C            0.37656632       -3.32709116       -1.81078366
 C           -0.89073668       -3.00004608       -1.20226705
 C            0.93509164       -2.38729473       -2.75099316
 C           -2.50978527       -1.29357839       -0.80820750
 C           -1.59133085       -1.89474429       -1.66558696
 C           -3.64826079        0.83503972       -0.46118147
 C           -3.34774174       -0.30190654       -1.31180539
 C           -2.55897692        2.97443534       -1.05195780
 C           -3.62984522        2.02682648       -1.28105664
 C           -0.63648401        3.26936663       -2.60029011
 C           -2.05757222        3.37870804       -2.34956248
 C           -0.50174711        2.78435313       -3.95984240
 C            1.53424919        1.56136335       -3.22018630
 C            1.87904822        0.16556197       -3.37530732
 C            0.57251239        1.86532826       -4.25974386
 C            0.09726795       -1.47780196       -3.37893038
 C           -1.17727146       -1.22858255       -2.83489905
 C            0.74668125       -0.45090121       -4.04456525
 C           -0.03384863        0.60032804       -4.64992608
 C           -3.11395102        0.20594461       -2.65207679
 C           -3.54651148        1.59665938       -2.66169735
 C           -2.74417347        2.57881751       -3.35855560
 C           -1.74245710        2.10209492       -4.28550022
 C           -1.95222193       -0.16541145       -3.32989920
 C           -1.43684130        0.68134329       -4.31803913
