   70
C70 / DATE: 7/ 1/2024 / Origin: Program Fullerene / C70 from database
 C            1.52629409       -0.23977233        4.99837811
 C            0.65021441       -1.39115572        4.96276722
 C            1.18778589       -2.31055440        3.97885021
 C            2.55511218       -0.43241877        3.98666217
 C            2.26736666       -1.65265512        3.27102850
 C            2.63190992        0.78424410        3.22360212
 C            0.74313040        0.91424676        4.59712990
 C            1.54622649        1.65493814        3.65593882
 C           -0.64694730       -0.95138038        4.46980249
 C           -0.54987905        0.45328996        4.14044987
 C            0.07271758       -2.76871134        3.19148416
 C           -1.04106162       -1.86722897        3.42153841
 C            0.30430796       -3.10250744        1.87494243
 C            2.21668448       -1.63214109        1.87387762
 C            1.44350692       -2.59995263        1.23284157
 C            2.88153443        0.71372890        1.85723252
 C            2.57870085       -0.47526677        1.16370802
 C            2.76129984        1.92087170        1.18692652
 C            0.90331647        2.37915867        2.66261647
 C            1.72979990        2.83172960        1.65010744
 C           -0.98363385        0.87672834        2.88720112
 C           -0.41203809        2.02472238        2.32075155
 C           -1.69702370       -1.37327344        2.29224669
 C           -1.73158261        0.01116256        2.07623858
 C           -0.82229797       -3.24755776        1.09581403
 C           -1.77263249       -2.22176991        1.18280400
 C           -0.62551259       -3.89197271       -0.10576489
 C            1.49368505       -2.70126173       -0.15890234
 C            0.65704782       -3.65744109       -0.74042228
 C            2.39082804       -0.44337817       -0.23368811
 C            1.88293328       -1.57459984       -0.90414508
 C            2.74154816        1.93843739       -0.25299208
 C            2.62955505        0.74474479       -0.94171679
 C            1.13583307        3.45361985        0.49542116
 C            1.92074322        3.06818696       -0.66219770
 C           -0.97657627        2.54040516        1.14763871
 C           -0.24233058        3.45651487        0.37854707
 C           -2.22170844        0.49868628        0.86622592
 C           -2.04682861        1.84863489        0.56800077
 C           -2.40149816       -1.76113743        0.02159927
 C           -2.59530610       -0.38853436       -0.14977024
 C           -1.64756218       -3.78522342       -1.11408536
 C           -2.47948417       -2.60169772       -1.09124886
 C            0.43986775       -3.64992095       -2.16600127
 C           -0.98153606       -3.85721721       -2.39957253
 C            1.65973109       -1.53140431       -2.29618751
 C            0.84166643       -2.48037863       -2.90421112
 C            2.31752215        0.82767852       -2.28864063
 C            1.80737046       -0.33133823       -2.97709402
 C            1.28804584        3.03737063       -1.90171379
 C            1.60735987        2.00232578       -2.78525898
 C           -0.75389422        3.89222569       -0.83559604
 C            0.06708996        3.70573686       -2.02600844
 C           -2.68414080        2.37406733       -0.54954215
 C           -2.11346319        3.54547558       -1.17780564
 C           -2.85973619        0.10427042       -1.43018667
 C           -3.09465338        1.46184780       -1.60167639
 C           -2.44303185       -2.01998933       -2.42328651
 C           -1.46173449       -2.74908955       -3.19950700
 C           -0.30759193       -2.01642733       -3.67174562
 C           -2.45232065       -0.63994283       -2.53439845
 C            0.72616253        0.10489344       -3.84747691
 C            0.64434696        1.55240210       -3.78341979
 C           -0.44127706       -0.64845429       -3.87283661
 C           -1.64290087       -0.03339137       -3.50234264
 C           -0.81938054        3.38791262       -3.12935074
 C           -2.17912494        3.37203942       -2.61791865
 C           -2.72862117        2.05557057       -2.87505096
 C           -0.60136792        2.15813864       -3.86250969
 C           -1.79256619        1.33313989       -3.71810095
