   70
C70 / DATE: 7/ 1/2024 / Origin: Program Fullerene / C70 from database
 C            1.33097780       -0.00775702        4.80526854
 C            2.47484820       -0.17010410        3.93354765
 C            2.47623663       -1.54326994        3.45643190
 C            0.50311855       -1.19674677        4.67581938
 C            1.23560478       -2.16781477        3.88191690
 C           -0.81136213       -0.77157392        4.21912963
 C            0.47360846        1.14114049        4.60865511
 C           -0.88589458        0.65349778        4.42715949
 C            0.74392239        2.05038159        3.50763300
 C            2.61488855        0.69801441        2.77471888
 C            1.71186096        1.73863965        2.55216154
 C            2.80067075       -1.52011407        2.03788038
 C            3.00856905       -0.13577460        1.65495307
 C            2.11008362       -2.35521517        1.16382241
 C            0.53138639       -2.92419319        2.95782511
 C            1.14408116       -3.21558564        1.67366323
 C           -1.32745611       -1.32584080        3.04855885
 C           -0.85432502       -2.57739268        2.67764535
 C           -1.96000629       -0.51171683        2.08945900
 C           -1.49670662        1.46105205        3.39961488
 C           -0.55223992        2.50878844        3.04980966
 C           -2.19767346        0.84684777        2.36765340
 C           -0.65274883        3.05982640        1.78108796
 C            1.53156957        2.20959889        1.25036695
 C            0.50124628        3.12052750        0.99960499
 C            2.64512632        0.25649121        0.37656759
 C            2.12997893        1.53171984        0.17970128
 C            2.03868434       -2.00791071       -0.18475661
 C            2.39993570       -0.71577094       -0.58478001
 C            1.31758499       -2.82300758       -1.06044564
 C            0.06440177       -3.63743242        0.80514333
 C           -1.16561272       -3.09795348        1.36702924
 C            0.22535047       -3.55211206       -0.56942648
 C           -2.25655203       -1.03213621        0.81295869
 C           -2.01061696       -2.38394836        0.52794014
 C           -2.63200347       -0.16994308       -0.22461868
 C           -2.62270968        1.69017096        1.34745689
 C           -1.87623847        2.91840074        1.13465552
 C           -2.93682704        1.14696170        0.04535524
 C           -1.97708656        3.26813620       -0.26779081
 C           -2.61875261        2.15238778       -0.95372639
 C            0.42177828        3.70553984       -0.25926180
 C           -0.89053682        3.88661641       -0.86498250
 C            1.90407290        1.96888795       -1.12439438
 C            1.30221999        3.21391835       -1.30003221
 C            2.18587192       -0.31284976       -1.90104303
 C            1.95724228        1.04132817       -2.17917881
 C            1.43483450       -2.58502385       -2.42871350
 C            1.91068756       -1.28271300       -2.86616550
 C            0.35945907       -2.98289248       -3.32077732
 C           -0.95185630       -3.57824719       -1.30832945
 C           -2.08520852       -2.82986242       -0.79210192
 C           -0.90137081       -3.38342427       -2.73937137
 C           -2.47561735       -0.55654563       -1.54939206
 C           -2.48250898       -1.90853185       -1.83681367
 C           -1.89230332       -2.37058039       -3.07307588
 C           -2.14727584        1.75274381       -2.20692151
 C           -2.07136645        0.38225215       -2.51307244
 C           -0.73152994        3.75297110       -2.29881005
 C            0.68409587        3.55684127       -2.56289351
 C           -1.44082060        2.68186176       -2.97319094
 C            1.54854037        1.40565828       -3.46322572
 C            0.79119212        2.62492119       -3.65973893
 C           -0.56044920        2.21954533       -4.02135110
 C            1.17963917       -0.92046874       -4.07268616
 C            0.08982064       -1.87016380       -4.20956338
 C           -1.25912434       -1.40045179       -3.93727123
 C           -1.43303154       -0.04129391       -3.69463921
 C            0.88766305        0.41591322       -4.28642659
 C           -0.51304087        0.80478122       -4.30222640
