   70
C70 / DATE: 7/ 1/2024 / Origin: Program Fullerene / C70 from database
 C            1.32624628       -0.14759421        5.27670832
 C            0.49008050       -1.33031039        5.22308228
 C            1.12230810       -2.28339123        4.32541462
 C            2.47080338       -0.36969446        4.40754563
 C            2.36898802       -1.70744186        3.85782817
 C            2.55340018        0.75480424        3.49114256
 C            0.56428060        0.95551720        4.71768258
 C            1.40508266        1.60793228        3.74496206
 C           -0.77730866       -0.94659872        4.62588543
 C           -0.71526639        0.45411245        4.26198185
 C            0.13089992       -2.68849427        3.34264858
 C           -1.06272585       -1.89481035        3.57679099
 C            0.52391197       -2.90321063        2.01820348
 C            2.72369455       -1.90158608        2.53202755
 C            1.85980623       -2.69848504        1.67286833
 C            2.92510022        0.53543981        2.16063308
 C            3.18522275       -0.76883922        1.73775966
 C            2.56306725        1.49467482        1.20640198
 C            0.80897214        2.18485023        2.64154498
 C            1.64803365        2.48114337        1.58907556
 C           -1.15879645        0.82913838        2.99173403
 C           -0.52313461        1.88090898        2.33036914
 C           -1.74166330       -1.45424722        2.45825452
 C           -1.89750770       -0.07935893        2.23436228
 C           -0.45290814       -2.82714727        1.01519320
 C           -1.69089542       -2.27748759        1.35089860
 C           -0.06500732       -2.85338425       -0.33088136
 C            2.19093891       -2.33991665        0.30870929
 C            2.98029350       -1.12073733        0.34177537
 C            1.22829461       -2.45645117       -0.67571107
 C            2.73027860        1.20752069       -0.15569277
 C            2.69542586       -0.11860480       -0.58173653
 C            2.50772658        2.21593086       -1.08619199
 C            1.14229811        3.34004028        0.63732234
 C            1.79750858        3.39730817       -0.64562064
 C           -1.01579907        2.29972753        1.08600458
 C           -0.29018092        3.27643862        0.40900607
 C           -2.41306142        0.32747007        0.99828409
 C           -1.87660899        1.45866385        0.36367164
 C           -2.60375926       -2.01214132        0.35339443
 C           -3.05873069       -0.63968091        0.23584661
 C           -1.04735965       -2.85492112       -1.32850657
 C           -2.34929186       -2.50177208       -0.98172507
 C           -0.64415322       -2.71575750       -2.65707954
 C            1.41006437       -1.72347230       -1.83901951
 C            1.99167597       -0.45494055       -1.74695726
 C            0.61570268       -2.04592334       -2.92474733
 C            1.99306591        1.86735644       -2.40113766
 C            1.66042269        0.54096242       -2.67553532
 C            0.78025363        3.70006389       -1.62745970
 C           -0.51730230        3.49949842       -1.00021502
 C            1.08443302        2.92850148       -2.81431149
 C           -2.09231752        1.67086839       -1.01820512
 C           -1.45288766        2.73445409       -1.68052997
 C           -3.33376435       -0.39603884       -1.16009952
 C           -3.13182981       -1.65520055       -1.86524768
 C           -2.90946433        0.78630662       -1.74790819
 C           -1.60152354       -2.26812079       -3.65704779
 C           -2.82676790       -1.62605308       -3.21616420
 C            0.38505478       -1.05531008       -3.95427296
 C            0.76762647        0.26295487       -3.71766354
 C           -0.91128139       -1.34936389       -4.54705191
 C            0.01978801        2.58985300       -3.62820603
 C           -1.31831488        2.69821990       -3.06615821
 C            0.05122441        1.31064185       -4.30167328
 C           -2.98153113        0.86813712       -3.13878162
 C           -2.93938916       -0.36009475       -3.91802666
 C           -1.81780932       -0.25890753       -4.83886849
 C           -2.17204355        1.83225633       -3.84149270
 C           -1.31158929        1.09379360       -4.75508716
