   70
C70 / DATE: 7/ 1/2024 / Origin: Program Fullerene / C70 from database
 C            1.30377434       -0.04636905        4.60281297
 C            2.58603036       -0.37428396        4.00753328
 C            2.53858068       -1.76284845        3.58454214
 C            0.46933423       -1.23367458        4.54520987
 C            1.18625397       -2.25049574        3.79492784
 C           -0.84740342       -0.83347854        4.08883829
 C            0.53932679        1.06023519        4.05539575
 C           -0.78221231        0.56790212        3.70296377
 C            1.16197159        1.95971554        3.20485056
 C            3.06022361        0.41554925        2.88506652
 C            2.45333234        1.62947169        2.60533701
 C            3.10672920       -1.84468540        2.25310550
 C            3.35005444       -0.48885946        1.78456241
 C            2.57177092       -2.76311498        1.36848711
 C            0.53407788       -2.91442735        2.75589513
 C            1.27496048       -3.36322704        1.66189584
 C           -1.55508029       -1.70774943        3.28439884
 C           -0.85404920       -2.81879825        2.65031300
 C           -2.46284748       -1.16132304        2.29760090
 C           -1.38365746        0.98841912        2.51133170
 C           -2.31786458        0.16230366        1.88054588
 C            0.36858362        2.61449390        2.18230488
 C           -0.88808631        2.11323230        1.84223827
 C            2.41896767        2.09014193        1.23041390
 C            1.27813312        2.97314247        1.11527968
 C            2.99190060       -0.13053807        0.47999000
 C            2.67778738        1.20132455        0.18678364
 C            2.58429207       -2.45206130       -0.04553155
 C            2.72917845       -1.12840568       -0.46253933
 C            0.61274875       -3.61113967        0.38754613
 C            1.56232473       -3.27696491       -0.65870294
 C           -1.50503122       -3.06956416        1.37072722
 C           -2.66304532       -2.19640405        1.30291740
 C           -0.73024225       -3.27739284        0.23249825
 C           -3.14874852       -1.82304414        0.06523078
 C           -2.86273335        0.54340518        0.65436894
 C           -3.46369504       -0.42520060       -0.15193552
 C           -1.42570569        2.47819482        0.60372327
 C           -2.52633742        1.77808827        0.10009428
 C            0.74485090        3.16869729       -0.14113741
 C           -0.63607281        3.24974841       -0.25868993
 C            2.22752796        1.54392256       -1.09229255
 C            1.46720969        2.71186603       -1.23513311
 C            2.29837066       -0.77649179       -1.74168072
 C            2.20075383        0.56918230       -2.09446035
 C            1.08690936       -2.90624618       -1.90116098
 C            1.66448490       -1.73668519       -2.53269960
 C           -1.21371319       -2.88853820       -1.02310144
 C           -2.46594443       -2.28693749       -1.13044810
 C           -0.34832989       -2.82845285       -2.11352487
 C           -3.50331317       -0.23361720       -1.58797809
 C           -2.69770576       -1.29393513       -2.17288018
 C           -3.04763961        2.11461454       -1.14968461
 C           -3.37779132        1.05015795       -2.08200952
 C           -1.15256177        3.69369741       -1.46976479
 C           -2.42435880        3.17335893       -1.92023978
 C            1.05652760        3.12874298       -2.49533414
 C           -0.26052509        3.73679481       -2.61964244
 C            1.72182693        0.89486463       -3.36391449
 C            1.23615827        2.23721236       -3.61963151
 C            0.72226288       -1.31426374       -3.54969945
 C           -0.57734460       -1.83617715       -3.15723506
 C           -1.66816633       -0.97345664       -3.05695578
 C            0.80630284       -0.01988769       -4.02447413
 C           -2.56207240        1.26209347       -3.26115858
 C           -2.24529838        2.68004941       -3.27827088
 C           -0.94132760        3.10850814       -3.73999636
 C           -0.04572840        2.11752405       -4.29941780
 C           -1.58718244        0.31737123       -3.59358997
 C           -0.42170719        0.71471349       -4.25481496
