   70
C70 / DATE: 7/ 1/2024 / Origin: Program Fullerene / C70 from database
 C            1.51954616        0.19998473        5.09448485
 C            0.72648746       -0.99207253        4.85527469
 C            1.58690708       -1.94095496        4.18816578
 C            2.67931812        0.13257519        4.21951373
 C            2.77535943       -1.22567656        3.74007255
 C            2.55900401        1.20461558        3.24827941
 C            0.73021980        1.34087708        4.67614849
 C            1.52844847        2.10482662        3.73749777
 C           -0.50430274       -0.59139963        4.19096328
 C           -0.56503494        0.85928966        4.22625798
 C           -0.91214359       -1.25734211        3.03212345
 C            1.05911074       -2.64180501        3.03815342
 C           -0.26317087       -2.44161359        2.65242375
 C            2.89517898       -1.45092680        2.31272270
 C            2.07488694       -2.59971390        2.00243559
 C            2.61644312        0.92323912        1.87961109
 C            2.87003951       -0.38114848        1.42648085
 C            2.14481800        1.88433892        0.97619773
 C            0.84658725        2.87583320        2.81240493
 C            1.32855153        2.91297821        1.44407695
 C           -1.16958458        1.52200562        3.16665448
 C           -0.59372045        2.71192914        2.71863582
 C           -1.71751672       -0.57464542        2.10761130
 C           -1.96539063        0.79250303        2.28476650
 C           -2.18256289       -1.23561456        0.96234183
 C           -0.64095547       -3.05770917        1.46899127
 C           -1.75909764       -2.52925724        0.71598485
 C            1.65328637       -2.77941206        0.68974463
 C            0.40872757       -3.36455025        0.50968654
 C            2.67088701       -0.66931868        0.08144452
 C            2.10865475       -1.89815960       -0.29492537
 C            2.15789537        1.61068957       -0.39353132
 C            2.66125563        0.38248314       -0.82002276
 C            1.31652986        2.34429039       -1.23920020
 C            0.21499117        3.35235870        0.62004600
 C           -0.98959424        3.24854697        1.42927470
 C            0.18203197        2.94889032       -0.70978385
 C           -2.67554965        1.49293731        1.31629178
 C           -2.13990090        2.75917213        0.83899393
 C           -2.80276769       -0.52297406       -0.06624601
 C           -3.20460452        0.78729170        0.16550841
 C           -2.81547551       -1.02396205       -1.37826195
 C           -1.57982388       -2.95705636       -0.65583021
 C           -0.18660939       -3.34911827       -0.80667000
 C           -2.16138939       -2.22772214       -1.68396662
 C            1.68273439       -2.07356936       -1.61904003
 C            0.53207260       -2.83297848       -1.87951694
 C            2.69232548        0.08380206       -2.17362207
 C            2.18597381       -1.21022658       -2.59355273
 C            1.37630968        2.14152851       -2.60966006
 C            2.21939693        1.07794041       -3.11350430
 C            0.13216990        2.12311309       -3.35956158
 C           -1.04628244        2.78996746       -1.36188974
 C           -2.21813572        2.73243892       -0.60757697
 C           -3.21205547        1.73305011       -0.93617875
 C           -1.07149515        2.31452478       -2.67795467
 C           -3.27817962       -0.19733794       -2.40771147
 C           -3.23355688        1.23968701       -2.22528526
 C           -2.24427799        1.73492506       -3.16682375
 C           -2.86662828       -0.43842959       -3.77910822
 C           -2.17453952        0.75797876       -4.23962238
 C           -1.61491391       -2.41518351       -2.95294684
 C           -0.18234617       -2.63428193       -3.05824895
 C           -2.02257116       -1.57570041       -4.05803669
 C            1.47994966       -1.02561227       -3.85105732
 C            1.50123551        0.39219891       -4.17131528
 C            0.24488660        1.09073962       -4.38371109
 C           -0.87677857        0.35868364       -4.74880041
 C            0.32555826       -1.75212210       -4.09200826
 C           -0.81682256       -1.09463902       -4.71409354
