   70
C70 / DATE: 7/ 1/2024 / Origin: Program Fullerene / C70 from database
 C            1.25186482       -0.09049541        4.59679787
 C            2.61542406       -0.24319583        4.13059814
 C            2.70314331       -1.51943058        3.44476901
 C            0.48848241       -1.24225502        4.13377939
 C            1.35737671       -2.05918534        3.32325990
 C           -0.73519543       -0.75763133        3.54433125
 C            0.51433977        1.10634889        4.23222836
 C           -0.77385481        0.68063798        3.71964653
 C            1.17083897        2.16326472        3.61405770
 C            3.17487980        0.77101362        3.25523096
 C            2.54947951        2.00784357        3.15899989
 C            3.47707416       -1.32349855        2.23186597
 C            3.63085783        0.11015712        2.03832751
 C            3.15993759       -2.10428863        1.13591265
 C            0.92871467       -2.48652734        2.06876521
 C            1.91459725       -2.85504956        1.16532939
 C           -1.17291546       -1.27575228        2.32802447
 C           -0.34546600       -2.13102836        1.58425696
 C           -2.18016457       -0.57776782        1.67001126
 C           -1.41345157        1.41958149        2.73563784
 C           -2.39275830        0.76855134        2.00060502
 C            0.45907902        2.94783692        2.61929643
 C           -0.76854894        2.50727285        2.13528505
 C            2.68993975        2.75402994        1.92383169
 C            1.43249411        3.43495953        1.66439862
 C            3.35556573        0.68169026        0.78999892
 C            3.06169147        2.03878834        0.71611238
 C            3.24013630       -1.51162513       -0.18339247
 C            3.09870238       -0.13774005       -0.31582737
 C            1.55068318       -3.11547606       -0.20212166
 C            2.47362147       -2.37654112       -1.05046609
 C           -0.71172571       -2.46894484        0.26450357
 C            0.21179556       -3.12962496       -0.56045521
 C           -2.69646944       -1.09223305        0.48402304
 C           -1.90426124       -1.95665704       -0.28480435
 C           -3.82319152       -0.48348918       -0.06475457
 C           -3.15633153        1.55771907        1.15922946
 C           -4.05419843        0.91362085        0.22942572
 C           -1.15655724        2.88808082        0.84488262
 C           -2.46219318        2.61677440        0.45345650
 C            1.13459865        3.29562285        0.25005080
 C            2.20356477        2.51508776       -0.34785981
 C           -0.17690308        3.02836870       -0.14279305
 C            2.39911912        0.36564861       -1.42071170
 C            1.87182987        1.65986068       -1.38345716
 C            1.97632923       -1.88215713       -2.24552344
 C            2.00031360       -0.49376527       -2.45849435
 C           -0.03292059       -3.21638095       -1.92242242
 C            0.95850829       -2.64064216       -2.81612569
 C           -2.24995689       -2.23704529       -1.61991814
 C           -1.33437014       -2.87799978       -2.44164431
 C           -4.11730876       -0.65529883       -1.46661373
 C           -3.25779123       -1.51129924       -2.24916793
 C           -3.95731179        1.63842229       -1.02469919
 C           -2.74696078        2.43309744       -0.95668856
 C           -4.08504739        0.66643651       -2.08335825
 C           -0.38752416        2.45607443       -1.40437892
 C            0.70828385        1.92724960       -2.08972705
 C           -1.69004711        2.15748670       -1.82205641
 C            1.27912596        0.05758837       -3.52482172
 C            0.52351141        1.27563508       -3.29422720
 C            0.28082692       -2.16906512       -4.00063516
 C           -1.14268410       -2.38390645       -3.79944451
 C            0.47851884       -0.79326174       -4.38768421
 C           -2.93839474       -0.77812516       -3.46359365
 C           -3.06397135        0.62178271       -3.10855859
 C           -1.90425447        1.39007448       -2.97772700
 C           -0.82185608        1.07611428       -3.79387338
 C           -1.83877031       -1.17663963       -4.20696517
 C           -0.83189403       -0.17869795       -4.53193760
