   70
C70 / DATE: 7/ 1/2024 / Origin: Program Fullerene / C70 from database
 C            1.58741588       -0.02199012        4.42000764
 C            0.77650026       -1.20369453        4.18135104
 C            1.50296311       -2.05603606        3.27511655
 C            2.68510908       -0.04288754        3.46981309
 C            2.68206136       -1.33161013        2.82167190
 C            2.57799267        1.12976673        2.63603107
 C            0.77070691        1.13837142        4.12036089
 C            1.43152854        1.90206989        3.07983086
 C           -0.54246210       -0.77231073        3.78617542
 C           -0.57808385        0.67843264        3.86289559
 C           -1.16214184       -1.38708342        2.70139460
 C            0.80489403       -2.79409029        2.32833310
 C           -0.52048523       -2.43223755        2.00663680
 C            1.59481419       -3.38871285        1.35473925
 C            3.01289251       -1.41654657        1.47157433
 C            2.73014757       -2.62960967        0.85545373
 C            2.78120704        1.00645671        1.27082030
 C            3.03341935       -0.24858691        0.68979476
 C            2.32861378        2.03972481        0.46400043
 C            0.63543493        2.51294807        2.11360891
 C            1.16836180        2.73435191        0.83849642
 C           -1.32274357        1.35525594        2.90848548
 C           -0.75029881        2.45571090        2.26300429
 C           -2.23105490       -0.71935254        2.10646744
 C           -2.34915539        0.66427870        2.27009107
 C           -2.97245638       -1.37305935        1.13486036
 C           -1.15569355       -3.00717210        0.88716852
 C           -2.37501223       -2.49798255        0.44763372
 C            0.96718420       -4.04825410        0.23874750
 C           -0.42019781       -3.75753424       -0.02810440
 C            2.71861439       -2.71947999       -0.58876325
 C            1.73118677       -3.72306268       -0.95305016
 C            3.09745007       -0.34511827       -0.71079479
 C            2.80575497       -1.55813998       -1.34408099
 C            2.78940151        2.08191999       -0.83978190
 C            3.15481868        0.82739188       -1.46947536
 C            2.09273279        2.89298556       -1.80998106
 C            0.39208255        3.40333197       -0.12094188
 C            0.80084942        3.43246589       -1.45025806
 C           -1.53649986        3.19564940        1.39118309
 C           -0.95518637        3.64183130        0.13758491
 C           -3.24751135        1.38771683        1.49227974
 C           -2.88966678        2.74238972        1.11796000
 C           -3.73237519       -0.60636115        0.16156406
 C           -3.87312171        0.76190397        0.34108475
 C           -2.57320509       -2.29715721       -0.98093111
 C           -3.42851029       -1.13799496       -1.15778967
 C           -0.54621533       -3.45545490       -1.44694572
 C            0.79095507       -3.42214072       -2.01690133
 C           -1.50655393       -2.52799252       -1.84777956
 C            2.25321322       -1.56048926       -2.62487092
 C            1.11364339       -2.41769407       -2.91182886
 C            2.61764016        0.84246134       -2.82205617
 C            1.92928619        2.10279025       -3.01763312
 C            2.04153010       -0.30997307       -3.32546955
 C           -0.14911573        3.04336662       -2.48138917
 C            0.51579916        2.08648419       -3.35197468
 C           -1.92308037        3.39118302       -0.92074637
 C           -3.14026247        2.89598830       -0.30506763
 C           -3.72252105        1.66194757       -0.79309709
 C           -1.47911953        2.84317557       -2.12289900
 C           -3.18898458       -0.27392236       -2.21485871
 C           -3.30137793        1.16299389       -2.01823921
 C           -2.19404709        1.80185234       -2.71947079
 C           -1.21055185       -1.60144931       -2.85814909
 C            0.05803254       -1.57027954       -3.43121049
 C            0.65287664       -0.28565379       -3.77179251
 C           -0.10887057        0.87680184       -3.64370098
 C           -2.05709945       -0.51996900       -3.08959091
 C           -1.48345266        0.76708492       -3.45659711
