   70
C70 / DATE: 7/ 1/2024 / Origin: Program Fullerene / C70 from database
 C            1.34679562       -0.05918307        4.11181099
 C            2.48872476       -0.20603986        3.22574173
 C            2.48184246       -1.57854306        2.74883741
 C            0.47819159       -1.20893580        3.90389783
 C            1.15775796       -2.11583057        3.01547975
 C           -0.81722824       -0.71351953        3.50742367
 C            0.52603844        1.13162997        4.01575449
 C           -0.85246631        0.69125283        3.86956427
 C            0.98538047        2.20540084        3.26444783
 C            2.82017334        0.81950239        2.34551184
 C            2.16521358        2.04812341        2.42391652
 C            3.54437696        0.51178933        1.19997877
 C            3.08087490       -1.89309573        1.53200400
 C            3.71728315       -0.88075155        0.80719441
 C            2.61297125       -3.02331738        0.86436168
 C            0.46253865       -2.69080891        1.96090934
 C            1.22895879       -3.42637469        1.07303975
 C           -1.36718989       -1.11621326        2.28845301
 C           -0.72978989       -2.09717153        1.51058494
 C           -2.39088159       -0.34562813        1.73528748
 C           -1.76620277        1.50691833        3.22557093
 C           -2.70063122        0.89151785        2.30353414
 C            0.03443544        3.04298030        2.55090758
 C           -1.31948402        2.74980528        2.60901205
 C            1.96017390        2.83197552        1.21460509
 C            0.62554215        3.41085251        1.27620087
 C            3.34843759        1.29930432       -0.00888632
 C            2.45413958        2.36627318       -0.00189255
 C            3.75473748       -0.92208971       -0.65159239
 C            3.35511415        0.38534028       -1.13942007
 C            2.92191925       -3.20644921       -0.53963679
 C            3.31469204       -2.05218139       -1.32051188
 C            0.67558209       -3.81475514       -0.20110708
 C            1.75781067       -3.79787256       -1.17276732
 C           -1.23765482       -2.40872140        0.23702342
 C           -0.56308453       -3.32505343       -0.59041884
 C           -2.90776064       -0.66718611        0.48221288
 C           -2.38916477       -1.75159434       -0.22895898
 C           -3.78198123        0.22554451       -0.15029063
 C           -3.18960362        1.95714206        1.45534862
 C           -2.14166670        2.96703035        1.43044827
 C           -3.81532861        1.61677518        0.27049184
 C           -0.15744058        3.44470415        0.12505586
 C           -1.54828893        3.30838502        0.21316955
 C            1.78307844        2.69174434       -1.17918098
 C            0.47776407        3.32731893       -1.10848352
 C            2.36073515        0.49662413       -2.10758733
 C            1.74627878        1.73014028       -2.27290377
 C            2.34886639       -1.89943921       -2.39719854
 C            1.53707377       -3.10652824       -2.42915254
 C            1.74989044       -0.65512662       -2.61301449
 C           -0.83392086       -3.35061828       -1.95458116
 C            0.23324017       -3.00753885       -2.88032775
 C           -2.84827880       -1.97357134       -1.52760067
 C           -2.03319717       -2.72598976       -2.45173399
 C           -3.90107346        0.21494469       -1.59828095
 C           -3.35832304       -0.85243713       -2.28934194
 C           -3.54561095        2.42795533       -0.90169792
 C           -2.30663048        3.18602956       -0.95091428
 C           -3.58439682        1.55508143       -2.06121463
 C           -0.27375424        2.91288275       -2.27905931
 C            0.43278148        1.79726643       -2.88328807
 C           -1.65292429        2.87339065       -2.21106031
 C           -2.35601676        1.75303767       -2.81173454
 C            0.46312463       -0.59077889       -3.16699861
 C           -0.18438483       -1.77411700       -3.51177117
 C           -1.62957827       -1.80936639       -3.51167704
 C           -2.35022792       -0.57528938       -3.29968862
 C           -0.24810554        0.61662106       -3.15990853
 C           -1.65026780        0.62683258       -3.23389729
