   70
C70 / DATE: 7/ 1/2024 / Origin: Program Fullerene / C70 from database
 C            0.99423050       -0.03882022        4.69132288
 C            2.31969244       -0.34796842        4.20680548
 C            2.25961688       -1.65259932        3.55873526
 C            0.17733811       -1.22040097        4.47262941
 C            0.86402241       -2.02794715        3.48419018
 C           -1.15736130       -0.75860348        4.17273991
 C            0.28454936        1.07739397        4.09503582
 C           -1.10782032        0.69521079        4.08286908
 C            0.82338919        1.70945203        2.97320533
 C            2.93419509        0.55752752        3.25977295
 C            2.20262725        1.62659892        2.73881761
 C            3.01907597       -1.55577422        2.32570982
 C            3.69758788       -0.27275888        2.34788536
 C            2.44457799       -1.97935640        1.13199704
 C            0.28763825       -2.21223001        2.22827616
 C            1.10965693       -2.41662911        1.11609002
 C           -1.79673891       -1.22918713        2.96072838
 C           -1.08153465       -1.99041174        2.03876269
 C           -1.91555837        1.07848737        2.94745277
 C           -2.57146551       -0.11776725        2.46030558
 C           -0.03004047        2.26226232        1.99903317
 C           -1.40496561        1.95814465        2.00120277
 C            0.51235271        3.01493986        0.94613285
 C            2.75510550        2.31918679        1.66998171
 C            1.88467968        2.98550218        0.72466876
 C            4.10573231        0.28299462        1.14432694
 C            3.82467135        1.68894026        0.91147481
 C            3.06049155       -1.59942193       -0.06173564
 C            3.81244316       -0.42573189       -0.09249374
 C            2.52655272       -2.04792077       -1.26009136
 C            0.53080873       -2.81735468       -0.08859989
 C            1.33014721       -2.86002677       -1.22529552
 C           -1.60568110       -2.10482313        0.75167209
 C           -0.85865614       -2.75632145       -0.22619596
 C           -2.94112522       -0.13544361        1.12697441
 C           -2.66760916       -1.27372698        0.37041989
 C           -2.13933782        2.10096475        0.82401926
 C           -3.02881001        1.08112819        0.46335069
 C           -0.28830818        3.34744691       -0.14391951
 C           -1.69095739        2.99705236       -0.13295515
 C            0.21656638        3.06526334       -1.48016182
 C            2.36180870        2.68271748       -0.61800408
 C            3.53813251        1.86268760       -0.50276720
 C            3.51339184        0.56123122       -1.12017081
 C            1.41977276        2.39223722       -1.59635239
 C            2.34966189       -1.08417842       -2.33529241
 C            2.52264424        0.26066761       -2.05024242
 C            1.44754440        1.14773693       -2.25617082
 C            0.71937666       -2.74498181       -2.53327902
 C            1.21641868       -1.50752508       -3.11845416
 C           -1.45075039       -3.01159759       -1.46191769
 C           -0.62677964       -3.03330355       -2.66222683
 C           -3.15461734       -1.32799585       -0.93752363
 C           -2.69211005       -2.33079017       -1.79057192
 C           -3.62494917        1.07889767       -0.79246645
 C           -3.81059021       -0.20381765       -1.45275312
 C           -2.10633970        2.84344461       -1.51498874
 C           -0.89777426        2.68217387       -2.30873272
 C           -3.19254126        2.03472728       -1.79970936
 C            0.33353114        0.73343463       -3.02122357
 C            0.30388484       -0.56364300       -3.56822002
 C           -0.78125549        1.58310050       -3.14951000
 C           -1.35987370       -2.34488901       -3.70798716
 C           -2.71278779       -2.13894261       -3.23213965
 C           -0.85841079       -1.05668071       -4.15570574
 C           -3.82520761        0.05453241       -2.88174262
 C           -3.21348577        1.35478419       -3.08306582
 C           -1.94871605        1.13374017       -3.76245732
 C           -3.16250737       -0.87300365       -3.77166473
 C           -1.99925046       -0.19203561       -4.32980009
