   70
C70 / DATE: 7/ 1/2024 / Origin: Program Fullerene / C70 from database
 C            1.37452485        0.11923521        5.03932329
 C            0.58041253       -1.05158657        4.71057836
 C            1.43784571       -1.97512182        4.00696192
 C            2.60498146        0.04317249        4.26932336
 C            2.68870955       -1.28737746        3.71517975
 C            2.62763493        1.17362153        3.36034661
 C            0.64593061        1.28977771        4.58417145
 C            1.52781115        2.05231389        3.72582417
 C           -0.62832292       -0.60088958        4.04938403
 C           -0.62518632        0.85086961        4.03698850
 C           -1.08911826       -1.25943129        2.91381269
 C            0.95849689       -2.54460018        2.76215095
 C           -0.33043317       -2.27129425        2.31359199
 C            2.93458432       -1.42957962        2.29447985
 C            2.03768972       -2.45376847        1.80306965
 C            2.91326698        0.98356049        2.00616389
 C            3.13897884       -0.30803794        1.49467876
 C            2.63314618        2.03177491        1.12464150
 C            0.94810064        2.82102560        2.72907256
 C            1.63745893        2.94724235        1.45881447
 C           -1.13004478        1.50114639        2.91170201
 C           -0.46313658        2.62515873        2.42053931
 C           -2.02391184       -0.59813610        2.12729961
 C           -1.97456957        0.79811149        2.05183045
 C           -2.63465747       -1.30239827        1.09521549
 C           -0.63571941       -2.61315446        0.99715949
 C           -1.92265300       -2.36574166        0.52970513
 C            1.70806520       -2.42822316        0.45597291
 C            0.40757545       -2.76151801        0.07298818
 C            3.11453819       -0.50184607        0.11292548
 C            2.47038723       -1.63650035       -0.39793600
 C            2.98760648        1.90608721       -0.21234978
 C            3.34455421        0.59433560       -0.70902014
 C            2.14664193        2.52956084       -1.22079136
 C            0.63973554        3.30178460        0.46235995
 C           -0.66415332        3.02410701        1.03312096
 C            0.87307006        2.96947221       -0.86359665
 C           -2.43294255        1.42724653        0.89479395
 C           -1.60399500        2.34998573        0.26330412
 C           -3.59881920       -0.62812320        0.35280590
 C           -3.41891765        0.79504895        0.15291856
 C           -4.09728007       -1.19463658       -0.88317521
 C           -2.26316697       -2.86377414       -0.72337392
 C           -3.43036579       -2.35743996       -1.41924346
 C            0.11617361       -2.87675744       -1.29119859
 C           -1.20493914       -3.04746192       -1.69726309
 C            2.26086865       -1.76867489       -1.76551761
 C            1.05014680       -2.43033801       -2.22502245
 C            2.99328256        0.54003746       -2.11897582
 C            2.33297536        1.79210907       -2.45920052
 C            2.52957641       -0.65245982       -2.65425601
 C            1.31121619        1.79959860       -3.39842842
 C           -0.20882397        2.67096166       -1.69289917
 C           -1.43485126        2.28541611       -1.12454625
 C            0.05110231        2.42106872       -3.03667756
 C           -3.49236618        1.04244633       -1.27438741
 C           -4.05885284       -0.14772993       -1.89176250
 C           -2.43924788        1.69677448       -1.90708817
 C           -3.03960831       -2.06003240       -2.78766785
 C           -1.64794967       -2.44832498       -2.94864308
 C           -3.42509305       -0.69119559       -3.08073942
 C            0.59008071       -1.74463064       -3.42316704
 C            1.49707528       -0.63340627       -3.67890081
 C            0.99391704        0.58093806       -4.12538035
 C           -0.77986614       -1.61249582       -3.64636168
 C           -0.97344030        1.83570776       -3.87005009
 C           -2.21725213        1.42961999       -3.25601899
 C           -2.53641126        0.11149046       -3.78093568
 C           -0.39929467        0.66387200       -4.51866782
 C           -1.28277186       -0.45799292       -4.24995633
