   70
C70 / DATE: 7/ 1/2024 / Origin: Program Fullerene / C70 from database
 C            1.50244594        0.08671633        5.05603483
 C            0.72662806       -1.08064376        4.68602783
 C            1.61482927       -1.95619748        3.95883990
 C            2.67613036        0.11843951        4.19554314
 C            2.79367054       -1.18169467        3.58665463
 C            2.55224016        1.27854192        3.33386181
 C            0.70890997        1.25544102        4.73726924
 C            1.54748873        2.13187387        3.94633821
 C           -0.48595645       -0.62706921        4.02391192
 C           -0.54798662        0.81786072        4.14766013
 C           -0.86730552       -1.20809866        2.82007048
 C            1.11908222       -2.57033819        2.74596466
 C           -0.18465486       -2.32790073        2.32983461
 C            2.91430305       -1.26461591        2.14532270
 C            2.15819180       -2.43509081        1.75283549
 C            2.56289379        1.13300986        1.93763842
 C            2.80902439       -0.11848184        1.35135276
 C            2.06562404        2.18289304        1.15578084
 C            0.90058138        3.03420164        3.13029477
 C            1.43449107        3.24812920        1.80461170
 C           -1.06253756        1.57560360        3.09470178
 C           -0.52777078        2.85148038        2.92745119
 C           -1.67851100       -0.47677225        1.95102101
 C           -1.64349442        0.92420542        1.99151126
 C           -2.21997205       -1.12737817        0.83998569
 C           -0.52349687       -2.77735543        1.06024937
 C           -1.76263690       -2.41654553        0.55873665
 C            1.77367461       -2.52976699        0.42888338
 C            0.50539245       -3.03332670        0.14808431
 C            2.54753491       -0.30833306       -0.00820646
 C            2.30621093       -1.61041621       -0.45993515
 C            1.89962228        2.01727191       -0.22923273
 C            2.19879138        0.77840127       -0.81551757
 C            1.18869012        2.98532928       -0.96047071
 C            0.39741049        3.97722766        1.11506932
 C           -0.86357921        3.61295591        1.74782136
 C            0.24267996        3.75132898       -0.29530364
 C           -2.03074573        1.65534049        0.85610354
 C           -1.68281690        2.99187250        0.73159060
 C           -1.15529623        3.44170490       -0.53645050
 C           -2.78661747       -0.36042466       -0.18042132
 C           -2.42118374        0.97368474       -0.29331849
 C           -3.36876463       -0.99158545       -1.27146110
 C           -2.18685117       -3.05602158       -0.59511491
 C           -3.21474514       -2.42572561       -1.39191461
 C            0.17187907       -3.26393585       -1.18906650
 C           -1.15940084       -3.54146128       -1.49978701
 C            2.08130986       -1.83752412       -1.80599012
 C            1.02706462       -2.77066482       -2.18049800
 C            2.01133711        0.58273252       -2.18963091
 C            2.02008807       -0.71012504       -2.71031069
 C            0.91090153        2.75351374       -2.29855990
 C            1.50059404        1.61558815       -2.96272920
 C           -1.44039816        2.71160450       -1.68131991
 C           -2.18955152        1.53199203       -1.56290097
 C           -0.48834936        2.78810950       -2.69054241
 C           -3.18276114       -0.41095074       -2.58962605
 C           -2.45003368        0.76711272       -2.70972540
 C           -2.95605019       -2.74576520       -2.78347684
 C           -1.63736192       -3.35155303       -2.85804874
 C           -2.90686411       -1.49709519       -3.51815389
 C            0.50144274       -2.34491742       -3.47065662
 C            1.11979513       -1.06988377       -3.80002521
 C           -0.83583966       -2.56798226       -3.77806400
 C           -1.66104780       -1.46824907       -4.26245832
 C            0.64065302        1.30567656       -4.09542032
 C           -0.63759907        1.96060825       -3.86159101
 C           -1.65737880        0.93613646       -3.84839996
 C            0.36601004       -0.08263574       -4.41703256
 C           -1.08005766       -0.23006210       -4.49569577
