   70
C70 / DATE: 7/ 1/2024 / Origin: Program Fullerene / C70 from database
 C            1.38076312       -0.16871312        5.60760106
 C            0.54494419       -1.34312949        5.48336491
 C            1.15277922       -2.21097952        4.48809374
 C            2.49651058       -0.32853103        4.68969458
 C            2.22876271       -1.48641097        3.85323809
 C            2.68082158        0.94796538        4.04679701
 C            0.60741382        0.96909340        5.13744559
 C            1.49676350        1.75799977        4.32374542
 C           -0.73435077       -0.91450737        4.94321919
 C           -0.61323739        0.46452384        4.53137695
 C            0.08646367       -2.67636521        3.64185738
 C           -1.09280397       -1.87035234        3.93054722
 C            0.35262497       -2.91711541        2.30020932
 C            2.20664659       -1.34776311        2.45932319
 C            1.40154766       -2.20827397        1.68656879
 C            2.86990913        0.97101500        2.61165494
 C            2.76282363       -0.20365758        1.86729161
 C            1.01449959        2.23305488        3.04475020
 C            2.13356124        2.11782232        2.13911466
 C           -0.92183725        0.79194080        3.20387870
 C           -0.23770500        1.83829678        2.56888340
 C           -1.82147243       -1.43714268        2.83227071
 C           -1.70296217       -0.09205717        2.43515970
 C           -0.77351766       -3.18387356        1.54416195
 C           -1.95415153       -2.38935430        1.84052337
 C           -0.66238245       -3.25884848        0.11098204
 C            1.44345706       -2.10061334        0.28357155
 C            0.44902990       -2.70359758       -0.50675712
 C            2.67449102       -0.05514736        0.48361142
 C            2.29058740       -1.14816113       -0.28577787
 C            1.84579477        2.15795448        0.79284392
 C            2.47017743        1.23221324       -0.02844005
 C           -0.49500607        2.09210798        1.22188770
 C            0.56541959        2.53442177        0.42820993
 C           -2.06813003        0.27843128        1.12621487
 C           -1.58150912        1.47793644        0.59888401
 C           -2.54090693       -2.01549149        0.58312536
 C           -1.97631296       -2.92314484       -0.39455339
 C           -2.63708198       -0.66738308        0.26203035
 C           -2.08652183       -2.57063202       -1.71968774
 C            0.36148724       -2.41254287       -1.87283330
 C           -0.87393726       -2.50377506       -2.51632178
 C            2.36023194       -1.02583771       -1.66922898
 C            1.39632282       -1.72918352       -2.49264174
 C            2.27940353        1.39428210       -1.39744984
 C            2.51020965        0.30461423       -2.22760693
 C            0.34098678        2.72142964       -0.92334089
 C            1.36122602        2.36350747       -1.80677269
 C           -1.85693942        1.81845010       -0.73143195
 C           -0.97002182        2.68749903       -1.37299527
 C           -2.85493336       -0.33841171       -1.07653945
 C           -2.82137110       -1.36316212       -2.02492622
 C           -2.66485897        0.97497792       -1.50003435
 C           -1.17315058       -1.62852993       -3.64206035
 C           -2.48983132       -1.04644866       -3.39507378
 C            1.12670388       -0.91144826       -3.67191784
 C            1.93516217        0.29561550       -3.56253187
 C           -0.16697337       -0.83891867       -4.19679229
 C            1.16297624        2.57644756       -3.16590768
 C            1.44478862        1.48426162       -4.08590538
 C           -1.21948547        3.10374005       -2.67449554
 C           -0.08568136        3.19379180       -3.57990956
 C           -2.89627809        1.28419937       -2.84420494
 C           -2.74409270        0.23444619       -3.84366616
 C           -2.31342514        2.49212457       -3.39522995
 C           -0.53152534        0.25892165       -4.97978136
 C            0.34557578        1.41451969       -5.02873977
 C           -0.46692061        2.60620931       -4.84913804
 C           -1.89699173        0.75254841       -4.89656144
 C           -1.85455983        2.19314109       -4.74287727
