   70
C70 / DATE: 7/ 1/2024 / Origin: Program Fullerene / C70 from database
 C            1.23741609        0.19507059        4.85513584
 C            2.51871102        0.02851035        4.20391048
 C            2.58218047       -1.33437764        3.70767213
 C            0.43766673       -0.98932171        4.57130275
 C            1.24154299       -1.89181981        3.77573005
 C           -0.83210734       -0.54974519        4.03950739
 C            0.44045265        1.35708780        4.52223433
 C           -0.89361917        0.89187011        4.18534170
 C            0.87383466        2.23638829        3.44871197
 C            2.87661931        0.90838966        3.10443018
 C            2.07676594        2.00588310        2.77484210
 C            3.25371516       -1.31076804        2.41871089
 C            3.41640146        0.08137962        2.03365271
 C            2.84512363       -2.21787170        1.45798013
 C            0.70326978       -2.45869283        2.62288302
 C            1.59478245       -2.93050423        1.66941802
 C           -1.29995452       -1.09981187        2.85390567
 C           -0.60586944       -2.14640445        2.22892661
 C           -2.20983328       -0.35716761        2.11044319
 C           -1.36530993        1.67383129        3.05328165
 C           -0.31200289        2.59981744        2.68420625
 C           -2.05057534        1.02563392        2.03530902
 C           -0.16761947        2.95218954        1.34592238
 C            2.24438473        2.57799708        1.51823602
 C            1.10910181        3.22082768        0.87788891
 C            3.20530769        0.47735793        0.71272157
 C            2.93945364        1.81896081        0.48997829
 C            2.86501058       -1.81598804        0.06414593
 C            2.84211260       -0.46663134       -0.25899248
 C            1.10040066       -3.31510782        0.36909610
 C            1.97276714       -2.71389625       -0.62929684
 C           -1.12018907       -2.67454031        1.03235799
 C           -0.26733914       -3.32453438        0.12680349
 C           -2.91168763       -1.00325317        1.10977328
 C           -2.39040610       -2.26394441        0.61876371
 C           -3.37571994       -0.23580995       -0.03252159
 C           -2.12643379        1.64181274        0.78877860
 C           -1.14996513        2.57946242        0.42462200
 C           -2.95702154        1.08270578       -0.18356779
 C           -1.00188390        2.93891329       -0.91896003
 C            1.35328808        3.19403456       -0.54907499
 C            2.42158284        2.23746230       -0.79145692
 C            0.28098220        3.19091594       -1.42960275
 C            2.23906573       -0.05897317       -1.46067982
 C            2.24422433        1.29981890       -1.80056879
 C            1.40160664       -2.32331170       -1.82948239
 C            1.52929469       -0.98918379       -2.25109352
 C           -0.65024272       -3.47774277       -1.20509961
 C            0.29049403       -3.05507869       -2.22867842
 C           -2.78942292       -2.38729840       -0.77203700
 C           -3.37591610       -1.11808772       -1.18713976
 C           -1.97640081       -3.08560455       -1.64342771
 C           -3.10191951       -0.58370968       -2.44583702
 C           -3.01843240        1.66000183       -1.44588661
 C           -2.06606954        2.69899133       -1.78720943
 C           -3.17303241        0.79819792       -2.60962419
 C           -1.83830109        2.63168888       -3.22065713
 C           -2.47596504        1.42421108       -3.72009042
 C            0.58249671        2.80881535       -2.73280667
 C            1.54005795        1.73084872       -2.91670402
 C           -0.47677193        2.64356313       -3.70136787
 C            0.86002176       -0.56493035       -3.41222730
 C           -1.48240548        0.65533225       -4.44866115
 C            0.93778854        0.76404524       -3.80458882
 C           -0.23255499        1.39412096       -4.40334906
 C           -0.46203201       -2.63261108       -3.38225162
 C           -1.87259249       -2.64090655       -3.02087805
 C           -2.42400722       -1.34960138       -3.39548432
 C           -0.16402287       -1.34113297       -3.95517768
 C           -1.44029755       -0.71777428       -4.26214263
