   70
C70 / DATE: 7/ 1/2024 / Origin: Program Fullerene / C70 from database
 C            1.36391607       -0.02112048        4.29486201
 C            2.55710734       -0.19503434        3.48030693
 C            2.47265138       -1.49917196        2.85066135
 C            0.51811328       -1.18937472        4.10495227
 C            1.17895233       -2.07428066        3.17855526
 C           -0.80916788       -0.73240315        3.77575576
 C            0.53770786        1.16317866        4.11622109
 C           -0.82110967        0.71808549        3.87084622
 C            1.03618779        2.23849344        3.39980963
 C            3.04514435        0.87667007        2.75072571
 C            2.38525033        2.16787757        2.86031111
 C            3.41324236        0.67728343        1.35820082
 C            2.95552077       -1.69373932        1.56054977
 C            3.26819748       -0.57806425        0.76675243
 C            2.54941167       -2.86893750        0.93676579
 C            0.44856102       -2.66464300        2.15173502
 C            1.19352427       -3.33565940        1.19055566
 C           -1.50203922       -1.32807485        2.72485158
 C           -0.80379087       -2.12934771        1.80151146
 C           -2.67565570       -0.69401772        2.33201332
 C           -1.64893286        1.41619229        2.99756848
 C           -2.78693996        0.73754742        2.57397702
 C            0.19023108        2.88424918        2.40985100
 C           -1.10315530        2.41491710        2.17305034
 C            2.37084149        2.77399865        1.54210546
 C            2.98407950        1.84843129        0.61394021
 C            1.02244396        3.22171543        1.26886614
 C            2.39567959        1.65661910       -0.62784504
 C            3.11146863       -0.64328447       -0.62492416
 C            2.70110239        0.49521162       -1.32686054
 C            2.82860193       -3.05626609       -0.46889761
 C            3.11466444       -1.88296102       -1.25941715
 C            0.59659353       -3.65883860       -0.08515037
 C            1.67381655       -3.71045877       -1.05946500
 C           -1.27429811       -2.25141544        0.47892956
 C           -0.60510389       -3.06316173       -0.44240743
 C           -3.22171508       -0.95127578        1.01891530
 C           -2.41640601       -1.55743089        0.07027408
 C           -3.60096657        1.30397063        1.52358241
 C           -3.98594341        0.21786338        0.63620519
 C           -1.69579586        2.70344073        0.93465648
 C           -3.02149014        2.34497221        0.70729201
 C            0.49556095        3.02738728        0.00149924
 C            1.26005257        2.39427977       -0.98644830
 C           -0.88446683        3.07750905       -0.14310524
 C            0.71771359        2.23877473       -2.26779995
 C            2.30085210        0.39584248       -2.65297857
 C            1.26797471        1.29429824       -3.13782809
 C            2.42446491       -2.04474590       -2.52741344
 C            1.45511178       -3.12093128       -2.36673644
 C            2.07671525       -0.91107720       -3.24735501
 C           -0.92379266       -2.97241939       -1.79712012
 C            0.14622212       -2.92408269       -2.78500389
 C           -2.62745793       -1.29010409       -1.28510862
 C           -1.96799094       -2.06276167       -2.23165300
 C           -3.86210558        0.70433210       -0.72251510
 C           -3.47359218        2.10615870       -0.64959582
 C           -3.26479649       -0.10776329       -1.68301837
 C           -1.40562879        3.14369733       -1.42991986
 C           -0.54844488        2.75899506       -2.53867434
 C           -2.74554667        2.64525253       -1.69805810
 C           -2.93069364        0.47367198       -2.90479777
 C           -1.38412145        2.11424009       -3.53590727
 C           -2.69349315        1.90449054       -2.94569882
 C            0.40232895        0.53159629       -4.02880307
 C            0.80377690       -0.86304300       -3.94880805
 C           -0.15470153       -1.84059654       -3.70424794
 C           -1.53711340       -1.45200769       -3.47816770
 C           -0.94577988        0.85284336       -4.10251337
 C           -1.94154868       -0.15559262       -3.76241257
