   70
C70 / DATE: 7/ 1/2024 / Origin: Program Fullerene / C70 from database
 C            1.37386115       -0.11844880        4.27039330
 C            2.60761912       -0.38231360        3.56732020
 C            2.49037871       -1.68098582        2.92465942
 C            0.51542007       -1.28255130        4.11199173
 C            1.15155923       -2.17785536        3.16443279
 C           -0.82621123       -0.80792473        3.81893199
 C            0.59895027        1.05061657        3.89887226
 C           -0.79539130        0.64351398        3.88748500
 C            1.06618423        1.91891173        2.90726097
 C            3.04028894        0.56220834        2.56081831
 C            2.37193804        1.77034782        2.39846807
 C            2.93611703       -1.54082078        1.55159535
 C            3.40546894       -0.18114456        1.36656156
 C            2.18740918       -2.11297067        0.53915229
 C            0.40538858       -2.63175368        2.08452371
 C            1.02531713       -2.82614832        0.84754421
 C           -1.55165098       -1.42367170        2.80027702
 C           -0.97892300       -2.51338067        2.13173034
 C           -2.62241710       -0.73340269        2.21871050
 C           -1.69319040        1.36523858        3.12015129
 C           -2.66159228        0.65463291        2.30155537
 C            0.14844451        2.78095287        2.28488804
 C           -1.21393004        2.49697093        2.34738988
 C            0.57238409        3.66098137        1.29519596
 C            2.77182267        2.53268633        1.30929594
 C            1.95835457        3.64794210        0.89302795
 C            3.24119685        0.44199978        0.12630551
 C            3.22300376        1.83160193        0.11395856
 C            2.35212614       -1.62079781       -0.74600601
 C            2.63807179       -0.26471553       -0.92477416
 C            1.83838380       -2.36423733       -1.79111814
 C            0.29740150       -3.40972727       -0.19431658
 C            0.81453544       -3.35116352       -1.48916487
 C           -1.72482336       -3.21503772        1.19685831
 C           -1.05988012       -3.69186633       -0.00629699
 C           -3.33393982       -1.32852742        1.18336685
 C           -3.01705994       -2.69070049        0.81298643
 C           -3.54036630       -0.56786194       -0.04249253
 C           -2.87005344        1.41789564        1.08055278
 C           -2.00219964        2.57543526        1.12723139
 C           -3.04452809        0.73136368       -0.11609131
 C           -0.23809172        3.79831268        0.09304545
 C           -1.38803113        3.01716169       -0.03480003
 C            2.00771065        3.71572726       -0.55634421
 C            2.70492103        2.53405198       -1.03968457
 C            0.66131817        3.96736372       -1.03774200
 C            2.13047220        0.41572349       -2.04736278
 C            2.14125947        1.81887324       -2.08878885
 C            1.47862722       -1.69711300       -3.02430611
 C            1.53005638       -0.30815492       -3.09138047
 C           -0.09110503       -3.40542718       -2.62027088
 C            0.31424059       -2.38005994       -3.56704853
 C           -1.99870532       -3.55494071       -1.11535042
 C           -3.13745675       -2.80086715       -0.62862007
 C           -3.36399137       -1.46953538       -1.16274026
 C           -1.51100288       -3.25400306       -2.37762060
 C           -0.85840603       -1.59217210       -3.90247488
 C           -2.61482507       -1.05169714       -2.25264630
 C           -1.92637329       -2.00749433       -3.00631044
 C           -2.34318062        1.14408488       -1.25695568
 C           -1.66025205        2.37476881       -1.24628800
 C           -2.28273957        0.29766239       -2.37919331
 C            0.30109769        3.42430763       -2.25895612
 C            1.21922989        2.49120800       -2.88750747
 C           -1.01465439        2.83052546       -2.39163020
 C            0.63900126        0.32779549       -3.95540964
 C           -0.68406570       -0.24011907       -4.14425479
 C           -1.60316654        0.69500083       -3.52533290
 C            0.45082124        1.75633307       -3.86279301
 C           -0.95817700        1.98739163       -3.56446561
