   70
C70 / DATE: 7/ 1/2024 / Origin: Program Fullerene / C70 from database
 C            1.28020972        0.00451567        4.37817674
 C            2.54473869       -0.16665366        3.68148793
 C            2.51184613       -1.46567675        3.02551442
 C            0.47287829       -1.17899752        4.12827835
 C            1.16646301       -1.99667668        3.15902066
 C           -0.86887023       -0.74422685        3.81114455
 C            0.46066105        1.17483166        4.09972829
 C           -0.87151401        0.70980215        3.76383231
 C            1.00397881        2.23453926        3.38996165
 C            3.11574693        0.92287421        3.03287218
 C            2.41032246        2.19477458        3.02405249
 C            3.73200949        0.74690361        1.72657533
 C            3.18347714       -1.65134863        1.82741052
 C            3.83155525       -0.52186190        1.17463219
 C            2.55399881       -2.44846531        0.78900339
 C            0.47656945       -2.41157962        2.02218167
 C            1.18872975       -2.72519866        0.85800852
 C           -1.59021204       -1.42295353        2.83595338
 C           -0.91993634       -2.31696426        1.98784281
 C           -2.73893276       -0.78911107        2.37528251
 C           -1.60067889        1.33277350        2.75235746
 C           -2.73149992        0.66292465        2.30065707
 C            0.26221430        2.79182119        2.26868195
 C           -0.95522865        2.22760697        1.89038343
 C            2.54150844        2.76963859        1.69777995
 C            3.31381854        1.85125033        0.88034379
 C            1.21787217        3.15086170        1.23736674
 C            2.87380712        1.59759044       -0.41548664
 C            3.65067204       -0.68533467       -0.25852562
 C            3.12516959       -2.02045895       -0.47228057
 C            3.15176500        0.36823671       -1.02325633
 C            2.42275563       -2.27457610       -1.63640173
 C            0.50744169       -3.08702912       -0.30784448
 C            1.12233679       -2.92041763       -1.54853939
 C           -1.60487084       -2.89937759        0.92565314
 C           -0.87083574       -3.26410712       -0.27160647
 C           -3.43660763       -1.29730473        1.20954476
 C           -2.89335383       -2.36556790        0.51257864
 C           -3.33097988        1.03842230        1.03796581
 C           -3.96041688       -0.15171162        0.48420718
 C           -1.37063158        2.33632877        0.55570810
 C           -2.64905240        1.90681904        0.19393377
 C            0.88581759        2.90403927       -0.08676418
 C            1.86569694        2.40363216       -0.94083594
 C           -0.45446077        2.73415993       -0.42830832
 C            1.57554168        2.30549218       -2.29092359
 C            2.61724257        0.09528275       -2.28576473
 C            2.31418080       -1.22383062       -2.63350012
 C            2.04742601        1.13775255       -3.01110887
 C            0.32662065       -2.46631582       -2.68024612
 C            1.12957206       -1.51540100       -3.42842482
 C           -1.66587169       -2.86819013       -1.42532552
 C           -2.94465187       -2.38148940       -0.94145379
 C           -1.03752232       -2.24699086       -2.50359190
 C           -4.14495902       -0.23141607       -0.88869711
 C           -3.58162871       -1.35612198       -1.62508281
 C           -3.06474606        2.00761657       -1.12962640
 C           -3.91950198        0.96624416       -1.67656212
 C           -0.79688308        2.67544740       -1.78161196
 C            0.21895920        2.57744864       -2.73148518
 C           -2.10367577        2.36933989       -2.15305628
 C            1.07762231        0.83972024       -4.05161881
 C            0.50156395       -0.48990463       -4.11318632
 C           -0.01047412        1.79451155       -3.93088081
 C           -1.67802537       -1.20581642       -3.18886317
 C           -2.97834254       -0.83737748       -2.84046499
 C           -3.36241011        0.55791279       -2.95178114
 C           -2.34543130        1.52180135       -3.31763665
 C           -0.94234721       -0.35393607       -4.01861308
 C           -1.25823650        1.06947356       -4.04876569
