   70
C70 / DATE: 7/ 1/2024 / Origin: Program Fullerene / C70 from database
 C            1.29088270       -0.01499648        4.08601678
 C            2.58077893       -0.34091546        3.52219186
 C            2.57129963       -1.75209638        3.17991138
 C            0.46803936       -1.21375398        4.04692440
 C            1.21208518       -2.23927215        3.34808050
 C           -0.83536126       -0.83854679        3.53613181
 C            0.52431705        1.05684239        3.48473683
 C           -0.84232193        0.60094207        3.34652039
 C            1.06329744        1.81333581        2.45285111
 C            3.02961183        0.38858004        2.35374861
 C            2.29963392        1.47300643        1.87987041
 C            3.21042052       -1.90063091        1.88339930
 C            3.52939559       -0.57057669        1.38722493
 C            2.69953470       -2.83781476        1.00129055
 C            0.60365163       -2.90844885        2.29147954
 C            1.40853440       -3.44569349        1.28669415
 C           -1.44199005       -1.62875468        2.56750513
 C           -0.76799845       -2.75238351        2.06380235
 C           -2.49649122       -1.07091800        1.84325910
 C           -1.61566258        1.12407811        2.31491385
 C           -2.60929299        0.32119191        1.75968645
 C            0.19431295        2.62459116        1.72906172
 C           -1.14868705        2.23137243        1.59345463
 C            0.75938269        3.51589311        0.82772939
 C            2.59716846        1.94135348        0.60131097
 C            1.99953055        3.12853008        0.18560686
 C            3.37904535       -0.27909717        0.03132730
 C            3.11941938        1.04687766       -0.34186440
 C            2.74461305       -2.56365601       -0.42260647
 C            3.16236791       -1.32008554       -0.88455362
 C            0.81802367       -3.83494649        0.01669508
 C            1.57158598       -3.16865623       -1.03358178
 C           -1.36134130       -3.51261327        1.05752400
 C           -0.56015394       -3.90359598       -0.08841234
 C           -3.23824340       -1.87689216        0.98782650
 C           -2.66556354       -3.13188681        0.54981483
 C           -3.86569822       -1.28330902       -0.17522315
 C           -3.50600520        0.89538541        0.86631956
 C           -4.12297839        0.07662539       -0.16837329
 C           -1.97034642        2.80214698        0.60730193
 C           -3.17864316        2.18518407        0.28317465
 C           -0.07487164        4.16319901       -0.15588322
 C           -1.43606055        3.70251324       -0.31398624
 C            1.88678117        3.43602751       -1.23114863
 C            0.58553903        4.04452281       -1.44620158
 C            3.14490810        1.39524191       -1.68915168
 C            2.34416027        2.51044329       -2.15553354
 C            2.86194618       -1.01408659       -2.20805317
 C            3.01778450        0.34570657       -2.67578727
 C            0.90362222       -2.46817585       -2.03873076
 C            1.63086679       -1.54345940       -2.77790944
 C           -1.19162743       -3.32058244       -1.25655717
 C           -2.57136230       -3.07897333       -0.90361759
 C           -3.18866535       -1.84572180       -1.33271136
 C           -0.49061840       -2.37085415       -1.99602536
 C           -2.49748125       -0.98998038       -2.18710571
 C           -1.12514357       -1.18349398       -2.40548858
 C           -3.98249785        0.79117294       -1.42257331
 C           -3.58339734        2.14833289       -1.11189230
 C           -3.05175635        0.26866247       -2.40897344
 C           -1.65405140        3.47485964       -1.73582182
 C           -0.34417847        3.39288228       -2.35063729
 C           -2.62317681        2.56267573       -2.11506458
 C           -2.20392436        1.36850302       -2.83551343
 C            1.41178790        1.98446058       -3.14357081
 C            1.86686552        0.65968695       -3.50861368
 C            0.93212901       -0.44171382       -3.40541839
 C           -0.37769472       -0.17830153       -3.02823455
 C            0.04871633        2.21218513       -2.97570617
 C           -0.84875301        1.13787157       -3.04286075
