   70
C70 / DATE: 7/ 1/2024 / Origin: Program Fullerene / C70 from database
 C            1.61332159        0.03145499        4.55509337
 C            0.78889478       -1.15752900        4.53719491
 C            1.26628275       -2.03149855        3.47572221
 C            2.60018575       -0.10766424        3.50181205
 C            2.33084853       -1.33357738        2.77777224
 C            2.59357669        1.12499829        2.74961649
 C            0.75870874        1.15452942        4.20404820
 C            1.40290290        1.86371452        3.12343233
 C           -0.59377123       -0.72263175        4.48287401
 C           -0.57580932        0.64260830        3.97987041
 C           -1.50327489       -1.60426018        3.93172291
 C            0.31412526       -2.72745876        2.74103630
 C           -0.97521336       -2.78587147        3.27532083
 C            0.49501227       -2.88016511        1.35917350
 C            2.31533029       -1.27972945        1.38808043
 C            1.43516015       -2.09360764        0.67786350
 C            2.87666709        1.07041386        1.39547414
 C            2.87758735       -0.17279665        0.74849392
 C            2.52649062        2.18416823        0.64449815
 C            0.62974646        2.36975195        2.08517934
 C            1.31859056        2.81662404        0.95907788
 C           -1.21524301        0.93643036        2.77311214
 C           -0.69264012        1.92135683        1.92454921
 C           -2.49870098       -1.08295768        3.01761368
 C           -2.20899592        0.07646364        2.29980306
 C           -2.06090255       -3.31896918        2.48203725
 C           -3.02368019       -2.23610577        2.31490289
 C           -0.43189542       -3.61737362        0.62537434
 C           -1.75657703       -3.84600472        1.17145430
 C           -0.60726292       -3.32809862       -0.78325696
 C            1.39968766       -1.99845546       -0.71858029
 C            0.32216283       -2.53222431       -1.43294208
 C            3.00834405       -0.18740380       -0.64169936
 C            2.28524333       -1.13764085       -1.37967697
 C            3.03986224        2.25003157       -0.64067441
 C            3.43383391        0.99692047       -1.24931205
 C            2.36787239        3.03895744       -1.65551439
 C            0.59117611        3.46603599       -0.02795814
 C            1.11132166        3.55303034       -1.38214151
 C           -1.38157282        2.24581292        0.75038532
 C           -0.83217891        3.20311868       -0.10398758
 C           -2.67897321        0.22282775        0.99105680
 C           -2.40140446        1.40259419        0.29371654
 C           -3.30081575       -2.11658645        0.90257283
 C           -2.70870279       -3.26161464        0.24535899
 C           -2.01082234       -3.02795695       -1.00449760
 C           -3.16329988       -0.88499410        0.27959728
 C           -2.30855147       -1.87835452       -1.73047922
 C           -3.06525854       -0.87711164       -1.10658589
 C           -0.07723453       -1.90427846       -2.60900207
 C           -1.41484220       -1.51324963       -2.73769761
 C            2.18160675       -1.02689353       -2.77055214
 C            0.90593651       -1.32154012       -3.39619644
 C            3.34834173        1.16661228       -2.68318679
 C            2.60487630        2.39413138       -2.93373481
 C            2.74688036        0.11362448       -3.46400019
 C            0.57034231       -0.21395908       -4.27687311
 C            1.47164570        2.05858596       -3.77549617
 C            1.68991783        0.70872268       -4.26538658
 C            0.01035098        3.29405517       -2.29876728
 C           -1.21177910        3.24158840       -1.50455897
 C            0.18618380        2.43407807       -3.38804939
 C           -2.89641209        1.54036667       -1.00645125
 C           -3.23876908        0.33947531       -1.74694490
 C           -2.27677557        2.47171639       -1.93463012
 C           -1.75539093       -0.45348513       -3.57214582
 C           -0.71334503        0.30592409       -4.23620067
 C           -0.89752248        1.70531515       -3.87524243
 C           -2.74841775        0.49018054       -3.10201636
 C           -2.19298237        1.82582810       -3.23045218
