   70
C70 / DATE: 7/ 1/2024 / Origin: Program Fullerene / C70 from database
 C            1.26395386        0.00969252        4.93336042
 C            2.51006076       -0.18850565        4.22423456
 C            2.51982228       -1.54721597        3.70790873
 C            0.43851275       -1.16969233        4.72379622
 C            1.23418682       -2.15408561        4.01132480
 C           -0.82199618       -0.73531215        4.14137868
 C            0.46173788        1.17060017        4.61011469
 C           -0.86989286        0.70505126        4.25386516
 C            0.89962327        2.07239627        3.55605944
 C            2.85176494        0.69967587        3.12628518
 C            2.09412127        1.84447634        2.86741145
 C            2.96704463       -1.49847897        2.32205288
 C            3.29078049       -0.12324520        2.00744569
 C            2.30602340       -2.25872624        1.37015680
 C            0.61743699       -2.91278557        3.02778214
 C            1.33117899       -3.16311467        1.79015235
 C           -1.26837844       -1.34401004        2.96931728
 C           -0.74808048       -2.59052718        2.64206056
 C           -1.89880867       -0.58345184        1.97377760
 C           -1.30610228        1.46647786        3.10595401
 C           -0.28804607        2.45338162        2.80631339
 C           -1.90100949        0.81280886        2.04073589
 C           -0.14536871        2.87603721        1.48748318
 C            2.26236363        2.46095624        1.63248400
 C            1.13318087        3.14752080        1.02531667
 C            3.09176509        0.35238955        0.71513229
 C            2.92439122        1.72004926        0.57118737
 C            2.32164398       -1.84441055        0.03723509
 C            2.59474486       -0.50469174       -0.27865377
 C            1.73439816       -2.67155640       -0.91107091
 C            0.33730524       -3.62155328        0.83983478
 C           -0.94567387       -3.11820977        1.30522535
 C            0.62738520       -3.52318346       -0.50962253
 C           -2.29201728       -1.19133469        0.77357530
 C           -1.75484716       -2.43276935        0.40823576
 C           -2.94383061       -0.42284559       -0.19831573
 C           -2.04561038        1.52322822        0.86140601
 C           -1.12748424        2.53425263        0.55443087
 C           -2.81648768        0.97147167       -0.14963583
 C           -0.98936823        2.95333352       -0.77353205
 C            1.37031662        3.17681546       -0.40484581
 C            2.45189259        2.24538166       -0.68542800
 C            0.29116457        3.20083065       -1.28291746
 C            2.25954601        0.01039547       -1.54889872
 C            2.31215786        1.39865203       -1.77304640
 C            1.43206464       -2.15310266       -2.22675676
 C            1.77447234       -0.85046724       -2.55179018
 C           -0.46186385       -3.26470218       -1.43320397
 C           -1.66751944       -2.77220695       -0.94325202
 C            0.11837741       -2.64950360       -2.61223004
 C           -3.33068574       -1.05560660       -1.37826283
 C           -2.54332569       -2.17833100       -1.83941912
 C           -3.69642248       -0.27767818       -2.54697603
 C           -3.05684769        1.75551644       -1.27284746
 C           -2.05444858        2.73505466       -1.64758643
 C           -3.58267559        1.16020581       -2.48279041
 C           -1.81024536        2.58664458       -3.07378990
 C           -2.74440992        1.59504015       -3.58724769
 C            0.57174923        2.87971259       -2.60938257
 C            1.65440137        1.94394759       -2.86820376
 C           -0.50427130        2.59043120       -3.53760398
 C            1.21024046       -0.33192321       -3.71371790
 C            1.25825377        1.08815182       -3.95622629
 C           -0.05478456        1.51715992       -4.41064736
 C           -0.69127957       -1.86170836       -3.42600286
 C           -2.06337332       -1.84271700       -3.17225982
 C           -2.88003224       -0.74451788       -3.65855864
 C           -2.23298372        0.40714649       -4.25413063
 C           -0.09721224       -0.81629091       -4.13555908
 C           -0.88267955        0.33357562       -4.56862173
