   70
C70 / DATE: 7/ 1/2024 / Origin: Program Fullerene / C70 from database
 C            1.51568735       -0.07587340        4.78307740
 C            0.72799353       -1.26754635        4.53877426
 C            1.23342115       -1.91163942        3.33823605
 C            2.57777873       -0.04691561        3.79830574
 C            2.41933596       -1.18820931        2.91954290
 C            2.56705694        1.26574328        3.18765903
 C            0.65646353        1.07021273        4.53089449
 C            1.27593223        1.86469881        3.49713706
 C           -0.66029170       -0.86521097        4.55034644
 C           -0.67770898        0.57186260        4.29819080
 C           -1.55156221       -1.64758167        3.83886355
 C            0.31505561       -2.33335731        2.37819310
 C           -1.02054603       -2.47572445        2.75919456
 C            0.63362956       -2.21702937        1.01896216
 C            2.63417578       -0.97773118        1.56721642
 C            1.85625551       -1.66310325        0.63099172
 C            3.01989719        1.37561873        1.87979079
 C            3.28190995        0.19422360        1.17733926
 C            2.57053600        2.47723542        1.16194666
 C            0.50384563        2.34594380        2.44085549
 C            1.20649528        2.92345985        1.38914809
 C           -1.41376104        1.05640064        3.21509304
 C           -0.77098437        1.79631214        2.20417508
 C           -2.72953327       -0.99029149        3.31532432
 C           -2.60846586        0.40511508        2.93300048
 C           -2.04672705       -2.57342262        1.73911626
 C           -3.15043414       -1.73104642        2.14550928
 C           -0.33157778       -2.49879940        0.05102706
 C           -1.68370581       -2.53732543        0.40291190
 C            0.00761641       -2.46010075       -1.30271090
 C            2.16131926       -1.51800682       -0.72554715
 C            1.20203066       -1.83881396       -1.70096242
 C            3.71819724        0.27786707       -0.13625272
 C            3.27607407       -0.74889926       -1.06155796
 C            2.84005537        2.55029633       -0.26003240
 C            3.61221796        1.55098044       -0.83132289
 C            0.57766128        3.07369046        0.09660050
 C            1.60824272        2.96332946       -0.92114793
 C           -1.36833516        1.92110166        0.93179561
 C           -0.64711685        2.47724688       -0.13343733
 C           -3.21840504        0.54992653        1.63020307
 C           -3.64327958       -0.77078840        1.18125748
 C           -2.65437295        1.41135313        0.69834805
 C           -2.63248628       -2.10712934       -0.52314374
 C           -3.49717399       -1.06335826       -0.16880855
 C           -1.00756883       -2.69512842       -2.22818301
 C           -2.36877192       -2.34865956       -1.86375404
 C           -0.82360278       -2.31908824       -3.60956565
 C            1.40279895       -1.45830990       -3.04497147
 C            0.37750472       -1.60840364       -3.97364569
 C            3.38607351       -0.18634743       -2.38547516
 C            3.43547570        1.26078592       -2.23873072
 C            2.34833176       -0.48263132       -3.34150395
 C            1.27651039        2.42320691       -2.16309809
 C            2.26786276        1.79241114       -2.91514601
 C            1.88440657        0.78536094       -3.88375412
 C           -1.02873558        2.22688877       -1.44904873
 C           -0.06655724        2.17845255       -2.46609106
 C           -3.11880541        1.29853172       -0.61192072
 C           -3.63279014        0.00797433       -1.04195710
 C           -2.33168332        1.83265452       -1.70305395
 C           -2.85333879       -1.41285976       -2.86257060
 C           -1.96429627       -1.50257514       -4.00462478
 C           -3.30546508       -0.16853659       -2.44353910
 C           -2.62624707        1.04369604       -2.88545527
 C           -0.02024233       -0.43857672       -4.73933289
 C            0.60479787        0.82941178       -4.41026159
 C           -0.39153244        1.62306396       -3.70725694
 C           -1.45324220       -0.27803242       -4.58905920
 C           -1.68329962        0.98199635       -3.90210425
