   70
C70 / DATE: 7/ 1/2024 / Origin: Program Fullerene / C70 from database
 C            1.45591269        0.05830358        4.76083626
 C            0.69270283       -1.17281035        4.66890127
 C            1.55229324       -2.17473827        4.08510384
 C            2.65418915       -0.10957034        3.95497943
 C            2.76610531       -1.50933752        3.62539580
 C            2.59374713        0.84931045        2.87152949
 C            0.66226366        1.11394637        4.15549924
 C            1.45056892        1.71274491        3.10470351
 C           -0.55808282       -0.86830539        4.00443491
 C           -0.62454821        0.56499591        3.78850780
 C           -1.03224217       -1.69406589        2.99183825
 C            1.04814445       -2.95559894        2.97166036
 C           -0.24181355       -2.74086101        2.48304456
 C            2.95672476       -1.88222223        2.23638930
 C            2.13615157       -3.05723836        2.02130191
 C            2.85460113        0.45298848        1.55815015
 C            3.00218447       -0.90464541        1.23673027
 C            2.49323840        1.33759506        0.54525917
 C            0.79064922        2.19663211        1.98647017
 C            1.52563555        2.30906083        0.81879175
 C           -1.22128082        1.01694324        2.61368261
 C           -0.58946830        2.01679809        1.86543443
 C           -2.06814397       -1.20094932        2.20789936
 C           -2.13181342        0.18054644        1.96956725
 C           -2.67999716       -2.08598422        1.33727067
 C           -0.57565681       -3.30814099        1.24571619
 C           -1.85292315       -3.10440682        0.72832234
 C            1.83403437       -3.40751356        0.71902937
 C            0.44636996       -3.66760578        0.36444962
 C            2.83550529       -1.31159633       -0.09315474
 C            2.39579939       -2.61160924       -0.35612841
 C            2.75488402        0.99451096       -0.77799743
 C            2.79673811       -0.35915394       -1.11684248
 C            2.53119232        1.95860701       -1.76109296
 C            0.96335762        3.01439185       -0.23275270
 C            1.69407095        3.08919088       -1.41285317
 C           -1.19960829        2.45615510        0.68730331
 C           -0.42851497        3.15084061       -0.25490143
 C           -2.82382078        0.68029634        0.86413112
 C           -2.42368872        1.89537629        0.30312759
 C           -3.58399210       -1.58327265        0.32833298
 C           -3.67085696       -0.15358641        0.13558484
 C           -2.01579592       -2.97288751       -0.71188172
 C           -3.18940553       -2.16426075       -0.94746916
 C            0.30017918       -3.36660656       -1.05358117
 C            1.57918219       -2.86701071       -1.52797807
 C           -0.88599826       -2.78852232       -1.49811415
 C            2.42046194       -0.76356767       -2.39975825
 C            1.59951881       -1.94714495       -2.55685064
 C            2.16420173        1.55063462       -3.10815370
 C            1.91732730        0.21109002       -3.34523184
 C            1.06818505        3.56960056       -2.62595193
 C            1.21742141        2.52354218       -3.62376962
 C           -1.05664291        3.76229456       -1.33709048
 C           -0.33162959        3.93596324       -2.58220453
 C           -3.03256442        2.31328833       -0.88065976
 C           -2.38838878        3.32689627       -1.69764473
 C           -3.78847093        0.04569021       -1.29563710
 C           -3.10628864       -1.08121903       -1.90330996
 C           -3.52594363        1.30305546       -1.79914338
 C           -0.84571502       -1.75709432       -2.45005165
 C            0.33943329       -1.51233192       -3.13371149
 C            0.56805396       -0.20369015       -3.71550272
 C           -1.90934874       -0.85281862       -2.58228675
 C           -0.11757279        2.07127033       -3.96912397
 C           -1.01793865        3.14023550       -3.58754356
 C           -2.31207154        2.79467922       -3.05244465
 C           -2.67190566        1.39638058       -2.96413697
 C           -0.45754519        0.73781748       -3.72341811
 C           -1.70135096        0.40869441       -3.16100573
