   70
C70 / DATE: 7/ 1/2024 / Origin: Program Fullerene / C70 from database
 C            1.33617303       -0.12983170        4.05198875
 C            2.56436306       -0.30548293        3.29661406
 C            2.59625861       -1.69191184        2.85032584
 C            0.49616790       -1.29009693        3.80899582
 C            1.25637311       -2.23226575        3.00664440
 C           -0.77792933       -0.81884161        3.30038958
 C            0.53551963        1.05523944        3.82005590
 C           -0.77994066        0.62950805        3.36545936
 C            1.12977210        2.14412243        3.20561495
 C            3.00485254        0.71505167        2.44950347
 C            2.39148916        1.96669863        2.49560177
 C            3.77532628        0.39892053        1.33193329
 C            3.32771766       -2.02870271        1.72163843
 C            4.06665018       -0.98986221        1.02985067
 C            2.72325810       -2.88515570        0.71464190
 C            0.63694884       -2.83938657        1.91771241
 C            1.42920525       -3.37023288        0.89130830
 C           -1.31306401       -1.43416711        2.18003308
 C           -0.72633997       -2.60290823        1.69924583
 C           -2.19741866       -0.72490027        1.36712368
 C           -1.42049685        1.35019610        2.35919606
 C           -2.23683900        0.67665169        1.44181392
 C            0.30273928        3.03099714        2.40871378
 C           -1.00031701        2.65394303        2.08546463
 C            2.31848173        2.75389441        1.27461217
 C            1.14910740        3.60582998        1.37496999
 C            3.50704697        1.07687992        0.07120555
 C            2.61783313        2.14184210        0.06134980
 C            3.88397108       -1.17932643       -0.40072338
 C            3.08958914       -2.37208268       -0.59619046
 C            3.39465211        0.06273462       -0.95786467
 C            2.12125490       -2.38672548       -1.59476317
 C            0.80930185       -3.92430734       -0.22473082
 C            1.17952138       -3.41051073       -1.53436097
 C           -1.40031277       -3.32900482        0.73017140
 C           -0.62601882       -4.10560775       -0.21310513
 C           -2.89166610       -1.40624238        0.36188256
 C           -2.47802381       -2.68663057       -0.00107865
 C           -3.63144707       -0.68699714       -0.56766809
 C           -3.00317255        1.41297486        0.53346953
 C           -3.75403486        0.74937042       -0.43051422
 C           -1.67295193        3.39557318        1.12138896
 C           -2.71756882        2.76367281        0.33626486
 C            0.54857900        4.05191909        0.20864557
 C           -0.89029348        4.22490018        0.22064904
 C            1.72675887        2.27548752       -1.00600418
 C            0.89137886        3.38732670       -1.04112495
 C            2.25358920        0.03341175       -1.74887227
 C            1.78739987       -1.18899915       -2.24228053
 C            1.44039091        1.16872465       -1.81477318
 C            0.76101026       -1.18205331       -3.17939674
 C           -0.01791858       -3.35200807       -2.35447451
 C           -1.12571214       -3.82379623       -1.54870175
 C           -2.29867275       -2.98262574       -1.41448865
 C           -0.21532895       -2.26009915       -3.18438047
 C           -3.45561398       -0.99152691       -1.98093609
 C           -2.52659720       -1.96440633       -2.33453719
 C           -1.53817900       -1.65600154       -3.27849759
 C           -3.82061888        1.31074898       -1.76823852
 C           -3.49462356        0.25810127       -2.71349481
 C           -2.62987185        3.28664518       -1.02392310
 C           -1.36950300        3.99166953       -1.12594228
 C           -0.29630848        3.36460345       -1.87580228
 C           -2.98112416        2.45051370       -2.07081714
 C            0.34778328        1.19244923       -2.68981241
 C            0.05155185        0.05865462       -3.44219880
 C           -1.33649641       -0.27796406       -3.70814821
 C           -2.31627434        0.66744078       -3.45108407
 C           -0.58841638        2.22738850       -2.62078128
 C           -1.92292118        1.97657610       -2.95476876
