   70
C70 / DATE: 7/ 1/2024 / Origin: Program Fullerene / C70 from database
 C            1.13953198       -0.00176159        4.31313330
 C            2.40276777       -0.26349494        3.66498976
 C            2.37652964       -1.64351224        3.20793789
 C            0.31223529       -1.19107620        4.16670623
 C            1.00535675       -2.09687050        3.28011162
 C           -1.01715899       -0.75529143        3.80117233
 C            0.35124978        1.12428269        3.85983228
 C           -1.03580395        0.69709691        3.85564574
 C            0.80342553        1.92510989        2.81519150
 C            2.78547968        0.55794128        2.53222441
 C            1.91385498        1.53342030        2.05110888
 C            3.03353423       -1.68361907        1.91881868
 C            3.43286615       -0.32370301        1.58398023
 C            2.49557036       -2.47424987        0.90823232
 C            0.38808900       -2.50071354        2.10160114
 C            1.18571659       -2.95528695        1.04756124
 C           -1.68118312       -1.38150544        2.75386446
 C           -0.96298529       -2.19955202        1.86739237
 C           -2.85842113       -0.78061194        2.31992665
 C           -1.94919991        1.37587894        3.05236455
 C           -3.02255884        0.64948011        2.53848566
 C           -0.10704553        2.82308573        2.27981869
 C           -1.53188921        2.54495102        2.40785402
 C            0.12495568        3.38409733        0.96656650
 C            2.03580966        1.94645776        0.71683230
 C            1.24315432        3.00192557        0.24087053
 C            3.46060426        0.03943374        0.24426331
 C            2.92756261        1.27204622       -0.13873804
 C            3.02014469       -2.28942947       -0.36608022
 C            3.55506784       -0.98084321       -0.70188599
 C            2.31316436       -2.79644717       -1.52740737
 C            0.57003919       -3.60740144       -0.01615145
 C            1.17050590       -3.55626557       -1.33964489
 C           -1.54186859       -2.57462341        0.65139459
 C           -0.86587204       -3.46613315       -0.17283512
 C           -3.38162447       -1.09007882        1.00300578
 C           -2.59623232       -1.82515461        0.12909358
 C           -3.79508571        1.18206048        1.43236608
 C           -4.05725567        0.09112741        0.50836350
 C           -2.18361769        2.99703993        1.18368663
 C           -1.15329333        3.46852825        0.27735164
 C           -3.26141271        2.29572498        0.67403921
 C           -1.20414649        3.15485703       -1.08086208
 C            1.24011721        3.31531067       -1.11281498
 C           -0.03242009        3.32814639       -1.81893495
 C            3.02766611        1.63665960       -1.47874812
 C            2.23195506        2.73203700       -1.98281217
 C            3.23532090       -0.71282401       -2.09427835
 C            2.31673974       -1.74793690       -2.53905232
 C            3.01884548        0.59509930       -2.49087250
 C            1.12764264       -1.39652832       -3.18031315
 C            0.09940873       -3.45284705       -2.31237669
 C           -1.16277085       -3.46977758       -1.59189258
 C            0.07770580       -2.31359650       -3.21360334
 C           -2.65816185       -1.56180145       -1.24585824
 C           -1.99383209       -2.40827282       -2.12832202
 C           -1.29131800       -1.83493381       -3.26378428
 C           -3.74108459        0.55082044       -0.82655057
 C           -3.26411904        1.92322901       -0.72972950
 C           -2.23120394        2.33539467       -1.57343071
 C           -3.09761807       -0.31373653       -1.70411384
 C           -1.52348433       -0.51030445       -3.59187115
 C           -2.05101771        1.62764899       -2.76200841
 C           -2.50282503        0.24693078       -2.83001728
 C            0.15384367        2.63260841       -3.08024194
 C            1.55642933        2.27364094       -3.18703906
 C            1.91311695        0.87945737       -3.38611321
 C            0.90303535       -0.06685248       -3.55327071
 C           -0.80053399        1.71956730       -3.49168620
 C           -0.39199866        0.36594107       -3.84244618
