   70
C70 / DATE: 7/ 1/2024 / Origin: Program Fullerene / C70 from database
 C            1.37994553       -0.14624006        4.51183841
 C            2.63761173       -0.32766227        3.81065865
 C            2.56183965       -1.57949921        3.07797922
 C            0.52662515       -1.28328940        4.20167196
 C            1.22263082       -2.11597016        3.24415692
 C           -0.78509150       -0.77723645        3.84852371
 C            0.60782645        1.06177288        4.27974802
 C           -0.77063596        0.66244396        4.04810508
 C            1.15850804        2.10074114        3.53518223
 C            3.08605251        0.69782136        2.88658796
 C            2.43652247        1.92366237        2.85383071
 C            3.04454609       -1.34271997        1.72594954
 C            3.43605755        0.05228499        1.63084279
 C            2.35163170       -1.91733133        0.66491331
 C            0.54755859       -2.53825843        2.10727688
 C            1.29041287       -2.77127609        0.95638326
 C           -1.43829388       -1.29685071        2.73334467
 C           -0.82708257       -2.31183852        1.98310278
 C           -2.49579623       -0.57157701        2.18337475
 C           -1.59334643        1.45354147        3.25688298
 C           -2.54137562        0.80898736        2.36638035
 C            0.30306920        2.91169513        2.68073540
 C           -1.04085928        2.60030156        2.54920697
 C            2.37116651        2.64532812        1.59811710
 C            1.06337075        3.26982172        1.49792583
 C            3.22428977        0.72254239        0.42924793
 C            2.91872211        2.09069702        0.44667805
 C            2.40199379       -1.30786173       -0.59141076
 C            2.96118955       -0.03450597       -0.71809370
 C            1.67834319       -1.86628411       -1.65070203
 C            0.68030748       -3.44940052       -0.08311451
 C            1.02177321       -3.07424981       -1.44097129
 C           -1.49121272       -2.85379309        0.87803504
 C           -0.76006054       -3.61605215       -0.03340299
 C           -3.19418521       -1.10411873        1.10918844
 C           -2.73256126       -2.33984279        0.50731694
 C           -3.58490776       -0.21244268        0.02988559
 C           -2.71039535        1.66444186        1.20313414
 C           -1.65290708        2.65370786        1.23057569
 C           -3.05065603        1.07421594       -0.00380087
 C            0.44899063        3.31227842        0.24698825
 C           -0.85747970        2.82986190        0.10065645
 C            2.59962290        2.72009375       -0.75033978
 C            1.28766184        3.34454201       -0.85989027
 C            2.96143536        0.58904355       -1.95934161
 C            2.86728543        2.03140494       -1.99423491
 C            1.37807759       -1.09493499       -2.78025682
 C            2.11274408        0.06475094       -3.01690930
 C            0.20032646       -1.32557646       -3.50763151
 C           -0.10503076       -3.42399784       -2.27847044
 C           -1.22169412       -3.75276959       -1.40386941
 C           -0.56893437       -2.45691263       -3.24830033
 C           -3.13725692       -2.32104626       -0.89421782
 C           -3.66667168       -0.99717542       -1.18969683
 C           -2.37290394       -2.98841103       -1.84215463
 C           -2.00856213       -2.31584402       -3.07890916
 C           -3.37291176       -0.38541334       -2.40095308
 C           -2.61069785       -1.10721997       -3.40935315
 C           -2.46837002        1.54121220       -1.18287812
 C           -1.29005262        2.30975058       -1.12902365
 C           -2.89575095        0.98710142       -2.38713197
 C            0.75666703        3.03786306       -2.17000871
 C            1.81291580        2.38444744       -2.92441186
 C            1.47597151        1.19422040       -3.68026261
 C           -0.53834689        2.54922822       -2.29041396
 C           -0.39294523       -0.27683105       -4.20591365
 C           -1.83640023       -0.12737361       -4.15098515
 C           -2.11206568        1.18374863       -3.58311048
 C            0.16496687        1.05514895       -4.10249302
 C           -0.85321795        1.88310385       -3.47176764
