   70
C70 / DATE: 7/ 1/2024 / Origin: Program Fullerene / C70 from database
 C            1.52263048        0.11320543        4.70284197
 C            0.74542040       -1.09956125        4.53895756
 C            1.40877405       -1.93317672        3.55082743
 C            2.67539234        0.01866561        3.82462543
 C            2.68439836       -1.30569609        3.23706218
 C            2.65673075        1.16490041        2.93467404
 C            0.70184445        1.21847325        4.23920351
 C            1.43226280        1.90089541        3.19947276
 C           -0.62510634       -0.70587996        4.28595048
 C           -0.61120204        0.70246880        3.91691310
 C           -1.40467282       -1.55945954        3.53017679
 C            0.63782361       -2.50098036        2.53165943
 C           -0.74272031       -2.56476361        2.70508835
 C            1.17908177       -2.64466241        1.24938264
 C            3.19489641       -1.44415101        1.95906698
 C            2.52392716       -2.34006097        1.04204283
 C            3.05164735        0.99693008        1.60499213
 C            3.53410838       -0.24812708        1.19641623
 C            2.54543568        1.87660382        0.64212078
 C            0.74204985        2.39336176        2.10784236
 C            1.49927721        2.73182859        1.00419793
 C           -1.22187280        1.09873253        2.72270596
 C           -0.60261032        2.05059740        1.90273098
 C           -2.43140875       -0.97865404        2.69665338
 C           -2.25326574        0.31456432        2.20346639
 C           -1.60086061       -2.80271457        1.55665292
 C           -2.81003692       -2.02720830        1.77665722
 C            0.34584316       -2.87178481        0.14404505
 C           -1.04300583       -2.83622824        0.28152763
 C            0.89783601       -2.92749491       -1.13106391
 C            2.97946198       -1.97938089       -0.28557939
 C            3.47461999       -0.61316300       -0.21127222
 C            2.20992706       -2.35267924       -1.37125844
 C            2.79596124        1.63218608       -0.71167322
 C            3.03194596        0.32276764       -1.13998878
 C            2.46660618        2.61185940       -1.64269553
 C            0.88339552        3.50697376        0.04139062
 C            1.50574100        3.62541812       -1.25841498
 C           -1.20678428        2.41077849        0.68958893
 C           -0.54351376        3.31703664       -0.14532694
 C           -2.83621570        0.64648233        0.97827237
 C           -2.22197941        1.60473099        0.15887947
 C           -3.56201037       -1.66887788        0.67902775
 C           -3.75617738       -0.25171012        0.43557870
 C           -1.85977800       -2.56575683       -0.82709699
 C           -3.19745362       -2.22859222       -0.60349183
 C            0.06654143       -2.61583225       -2.27780957
 C           -1.29646031       -2.41721370       -2.10449292
 C            2.08586208       -1.43854320       -2.49101616
 C            2.51730735       -0.12272203       -2.36419888
 C            0.81233770       -1.70589887       -3.13967550
 C            2.15247164        2.21315592       -2.99878456
 C            2.06419353        0.79775470       -3.29904357
 C            0.44664297        3.63881202       -2.24940336
 C           -0.79012760        3.28315663       -1.57539969
 C            0.88457714        2.82800974       -3.36242659
 C           -2.49113394        1.64672816       -1.22030118
 C           -1.58681737        2.26593974       -2.08324361
 C           -4.14862974       -0.13173159       -0.95150181
 C           -3.91401041       -1.42925299       -1.57422988
 C           -3.49662466        0.86175561       -1.76994670
 C           -1.97175911       -1.71275270       -3.10004687
 C           -3.30302245       -1.19396902       -2.85949116
 C           -3.24535983        0.24482828       -3.05328230
 C            0.14348081       -0.67014661       -3.79531274
 C            0.78890267        0.55913514       -3.95960743
 C            0.00721001        1.77640213       -3.82758929
 C           -1.28083708        1.67191402       -3.31983097
 C           -1.25159536       -0.70280463       -3.85724220
 C           -1.98951361        0.54457871       -3.70895306
