   70
C70 / DATE: 7/ 1/2024 / Origin: Program Fullerene / C70 from database
 C            1.38410976        0.00470313        4.44875232
 C            2.58567954       -0.30834787        3.71164857
 C            2.52936987       -1.71369941        3.34402781
 C            0.53130855       -1.16991355        4.44237744
 C            1.28515702       -2.26461559        3.85578929
 C           -0.74335522       -0.79704594        3.83987657
 C            0.58606384        1.11751354        3.99105941
 C           -0.75344435        0.63634430        3.69626382
 C            1.13267150        2.03709076        3.10783561
 C            2.87397115        0.45775744        2.51206099
 C            2.14630443        1.61231362        2.22874887
 C            2.80892344       -1.81744898        1.91917578
 C            3.11857200       -0.48303189        1.43501500
 C            2.02452250       -2.66454603        1.13437285
 C            0.59741081       -3.16723868        3.06190130
 C            1.17470305       -3.55443453        1.78789917
 C           -1.25263637       -1.58865034        2.82244162
 C           -0.80183598       -2.90281053        2.77906435
 C           -1.76854586       -0.98526025        1.65918530
 C           -1.42255605        1.21997177        2.62796939
 C           -1.82208727        0.41522551        1.54800891
 C            0.24203361        2.99884600        2.65781537
 C           -1.12154369        2.55571991        2.39587397
 C            0.64233557        3.85427954        1.56687676
 C            2.15215836        2.07836766        0.90850521
 C            1.61589334        3.32976127        0.63816774
 C            2.73149861       -0.14246413        0.14911136
 C            2.35788389        1.17351869       -0.13859372
 C            1.79205051       -2.32888670       -0.20960770
 C            2.36305229       -1.15967065       -0.72132104
 C            0.87095107       -3.05561883       -0.98564115
 C            0.10121308       -4.18279381        1.05389110
 C           -1.14996810       -3.73270728        1.65716539
 C           -0.01225243       -3.93579457       -0.36412944
 C           -2.20118935       -1.78357787        0.58986623
 C           -1.94051539       -3.15753317        0.59620565
 C           -1.42870326       -3.76774548       -0.61128902
 C           -2.55364258       -1.19460063       -0.62868850
 C           -2.14832138        1.00709730        0.31243967
 C           -2.46863628        0.19657523       -0.78979675
 C           -1.56249110        3.18316869        1.17649790
 C           -0.55488674        4.16386519        0.81446857
 C           -2.11460944        2.40411753        0.16864528
 C            1.14235260        3.63264469       -0.69973341
 C           -0.17570598        4.25156635       -0.57660624
 C            2.02014191        1.51497376       -1.45519708
 C            1.37232990        2.72487700       -1.73282597
 C            2.23338014       -0.85559997       -2.06541919
 C            2.12449790        0.54159155       -2.45023676
 C            0.52943756       -2.60104595       -2.26438011
 C            1.30791693       -1.62104570       -2.87500418
 C           -1.79977324       -3.20287435       -1.80803433
 C           -2.63754506       -2.02385287       -1.75266789
 C           -0.75016806       -2.87538400       -2.75329138
 C           -2.57000501       -1.45157959       -3.07649153
 C           -1.36652429       -1.97804923       -3.71171260
 C           -2.66118358        0.76886537       -2.06144114
 C           -2.53042147       -0.02016886       -3.19895994
 C           -2.17477414        2.96754668       -1.10244119
 C           -1.13770636        3.91243979       -1.51042849
 C           -2.48403992        2.13321253       -2.23812026
 C            0.61942656        2.85646328       -2.90202792
 C           -0.67588146        3.50182583       -2.81699845
 C           -1.65583424        2.57928131       -3.34794574
 C            1.27465494        0.61184897       -3.62536489
 C            0.72485076       -0.71552811       -3.85813014
 C           -0.60887301       -0.85185728       -4.22011109
 C           -1.48655769        0.30263938       -4.15737438
 C            0.47948550        1.73330753       -3.81419674
 C           -0.94009813        1.57610154       -4.11479627
