   70
C70 / DATE: 7/ 1/2024 / Origin: Program Fullerene / C70 from database
 C            1.55929827       -0.00541565        4.86241657
 C            0.77593599       -1.20873552        4.64177083
 C            1.64518262       -2.16065365        3.99944604
 C            2.71795709       -0.07742166        3.98881894
 C            2.84947415       -1.45080978        3.57518200
 C            2.56370213        0.93901225        2.96680019
 C            0.75721151        1.11837087        4.42412903
 C            1.49353979        1.82240086        3.39280290
 C           -0.44813246       -0.82391060        3.96357060
 C           -0.55681903        0.62042181        4.07064487
 C           -0.80946492       -1.43603862        2.75773432
 C            1.15462964       -2.86594507        2.83482047
 C           -0.08544687       -2.53746689        2.27353720
 C            3.02285402       -1.73806805        2.16481765
 C            2.29552977       -2.96819645        1.95056792
 C            2.64310936        0.60067070        1.61449060
 C            2.89217809       -0.72159232        1.21177846
 C            2.12813048        1.50247348        0.68853436
 C            0.74757984        2.45525336        2.40882256
 C            1.27254721        2.52215794        1.12216006
 C           -1.22998644        1.29057773        3.06371830
 C           -0.63751695        2.43922962        2.53781739
 C           -1.69802820       -0.76086968        1.91271460
 C           -2.06502250        0.55093544        2.23331317
 C           -1.98486602       -1.27934040        0.64528654
 C           -0.34964860       -3.02006103        0.98850321
 C           -1.41396500       -2.49299705        0.25041976
 C            2.04670282       -3.34184159        0.65090772
 C            0.68180684       -3.67451818        0.31248789
 C            2.64683061       -1.09797035       -0.11908019
 C            2.48287725       -2.44969572       -0.40710342
 C            2.19882465        1.19490179       -0.66396434
 C            2.22990679       -0.14190636       -1.05273143
 C            1.87194544        2.17653966       -1.58346523
 C            0.59970957        3.29643151        0.17685190
 C            1.05751586        3.29355022       -1.13707324
 C           -1.37710490        3.19562152        1.63997458
 C           -0.70939734        3.70646751        0.45147873
 C           -2.91359060        1.25623695        1.39098586
 C           -2.66797033        2.67763108        1.22445437
 C           -2.70187722       -0.51400798       -0.28273420
 C           -3.23201928        0.71029967        0.08796357
 C           -2.61318204       -0.81261662       -1.63750475
 C           -1.64837700       -2.97326555       -1.04388682
 C           -2.34265551       -2.12544211       -1.99880833
 C            0.65826543       -3.72273300       -1.12921909
 C            1.72875393       -2.83748056       -1.58028365
 C           -0.56719193       -3.63793618       -1.75949554
 C            1.66709601       -0.53355429       -2.28433605
 C            1.44305042       -1.89366182       -2.55809407
 C            1.42844529        1.79008335       -2.90714769
 C            1.26115263        0.44238971       -3.21065494
 C            0.13834862        3.63049076       -2.20690495
 C            0.39043868        2.72525604       -3.31322491
 C           -1.70035423        3.76251761       -0.61688615
 C           -2.85824470        3.01097591       -0.17461421
 C           -3.20542371        1.79224410       -0.88055536
 C           -1.28450100        3.61233082       -1.93000487
 C           -2.52843147        0.23164880       -2.57405782
 C           -0.88662206        2.19128120       -3.75098831
 C           -2.64168589        1.55134626       -2.12996869
 C           -1.87009591        2.55040030       -2.73846186
 C            0.31749336        0.12233295       -4.18628330
 C           -1.95425380        0.01193032       -3.82495599
 C           -0.90383114        0.90549612       -4.26185533
 C           -1.81343972       -2.41876504       -3.31471333
 C           -0.57481813       -3.14388653       -3.12056112
 C            0.50483922       -2.26066040       -3.52040989
 C           -1.52315595       -1.31749595       -4.20394497
 C           -0.07574258       -1.25494759       -4.37574909
