   70
C70 / DATE: 7/ 1/2024 / Origin: Program Fullerene / C70 from database
 C            1.32595280       -0.17377515        4.54230668
 C            2.60746512       -0.43839538        3.91825874
 C            2.57883318       -1.79482514        3.40068065
 C            0.47439745       -1.33248076        4.32380751
 C            1.26234790       -2.35240548        3.65854641
 C           -0.75020130       -0.87292133        3.69280138
 C            0.58446320        1.00665983        4.13625371
 C           -0.74112183        0.58024186        3.72460760
 C            1.22513376        1.99088863        3.39777982
 C            3.06061358        0.43764194        2.85135038
 C            2.46880485        1.68140780        2.69633158
 C            3.06683445       -1.76218288        2.03196815
 C            3.29721742       -0.37582943        1.66999724
 C            2.48147971       -2.59291329        1.08779898
 C            0.66376740       -3.10736024        2.66040269
 C            1.43442889       -3.43119706        1.47527504
 C           -1.22022680       -1.52327333        2.55050053
 C           -0.67117852       -2.75099529        2.19402633
 C           -1.95253167       -0.79307101        1.61143442
 C           -1.39659768        1.26018545        2.70618512
 C           -2.26600441        0.53309390        1.90370588
 C            0.43095527        2.82506639        2.51283466
 C           -0.88623369        2.47085028        2.22328375
 C            2.35119006        2.23225065        1.36033546
 C            1.29904769        3.22646789        1.42381683
 C            2.87211639        0.06934543        0.41617160
 C            2.41985310        1.38348958        0.25441226
 C            2.57400835       -2.23418618       -0.25264508
 C            2.62485639       -0.87125185       -0.58422103
 C            2.08689456       -3.14413555       -1.18185126
 C            0.47042116       -3.85711249        0.47502139
 C           -0.78674358       -3.21243547        0.81966540
 C            0.86361607       -3.85224419       -0.85061952
 C           -2.09835242       -1.26380506        0.29786637
 C           -1.41809827       -2.40347606       -0.12333166
 C           -2.80599221       -0.50411494       -0.63344105
 C           -3.11330290        1.22878444        1.06169377
 C           -3.52560408        0.59993526       -0.17554686
 C           -1.51423791        3.07096230        1.12759016
 C           -2.77411194        2.60524652        0.75504869
 C            0.71271442        3.63536384        0.24248586
 C           -0.73362484        3.75820671        0.19277213
 C            1.79121324        1.76558201       -0.93647090
 C            1.11870845        2.98559656       -0.99203163
 C            2.18595157       -0.43521468       -1.83665665
 C            1.60721614        0.83292076       -1.96086933
 C            1.99104277       -2.75010935       -2.57060151
 C            2.11472889       -1.34441303       -2.88663960
 C           -0.10359051       -3.44793457       -1.84954585
 C           -1.12900535       -2.57133890       -1.48031054
 C            0.68007945       -3.17430453       -3.03495060
 C           -2.56710707       -0.68914990       -2.00377421
 C           -1.66716453       -1.67893725       -2.41936222
 C           -2.89441329        0.31853376       -2.91902406
 C           -3.88741334        1.66877932       -1.08297462
 C           -3.29288271        2.89454238       -0.57106513
 C           -3.52131962        1.54642050       -2.47128908
 C           -1.09341498        3.73667833       -1.21574038
 C            0.03312946        3.15585120       -1.93880712
 C           -2.39005549        3.40734661       -1.58326154
 C           -2.60271882        2.63223500       -2.79016491
 C            0.72428790        1.11955102       -3.01788989
 C           -1.89498876        0.72113925       -3.88706617
 C           -0.18861949        2.16943818       -2.89107813
 C           -1.45796357        2.03499485       -3.45570266
 C            1.19446372       -1.09474911       -3.97168748
 C            0.20653977       -2.16647609       -3.94812036
 C           -1.06616315       -1.53538161       -3.67607596
 C            0.45585792        0.15065681       -3.98138383
 C           -0.92964772       -0.20395864       -4.22281637
