   70
C70 / DATE: 7/ 1/2024 / Origin: Program Fullerene / C70 from database
 C            1.67114531        0.09536565        5.17450131
 C            0.85494370       -1.10720098        5.20604271
 C            1.50206200       -2.09984663        4.36870672
 C            2.67365288       -0.08056399        4.13919115
 C            2.64922950       -1.46703515        3.73451132
 C            2.45266457        0.93231474        3.12382111
 C            0.81620262        1.19928356        4.77629497
 C            1.34244514        1.76656309        3.54468872
 C           -0.51504165       -0.72407851        4.91084425
 C           -0.55367358        0.72689753        4.78192715
 C           -1.27663234       -1.51342508        4.05160842
 C            0.72967409       -2.75756940        3.32692077
 C           -0.64191127       -2.55938802        3.25730751
 C            2.58228764       -1.76026052        2.31758547
 C            1.50968315       -2.70736110        2.10277854
 C            2.53230193        0.59366785        1.77908075
 C            2.72338586       -0.73691687        1.38631565
 C            1.96035303        1.46761165        0.86217178
 C            0.44325360        2.21747538        2.57563724
 C            0.82193169        2.18761786        1.22781753
 C           -1.43546749        1.30653883        3.88184988
 C           -0.91192120        2.23328785        2.88699116
 C           -2.30565127       -0.89658289        3.22942841
 C           -2.43306888        0.48308110        3.21640356
 C           -1.28798251       -2.58311499        1.95768109
 C           -2.37754446       -1.62610278        1.97237063
 C            0.86888699       -2.66790166        0.86724702
 C           -0.52665561       -2.69628174        0.79989937
 C            2.44769614       -1.05481353        0.05847591
 C            1.56428715       -2.10165219       -0.20387602
 C            2.20204764        1.24790616       -0.48177123
 C            2.54166130       -0.04146273       -0.88371495
 C            1.61158669        2.09758834       -1.40430739
 C           -0.08927009        2.57917385        0.23123941
 C            0.33343449        2.59357985       -1.11188673
 C           -1.87611782        2.28129603        1.81162111
 C           -2.76740443        1.14239153        1.97005858
 C           -1.45977204        2.59762099        0.52601690
 C           -2.68252311       -0.95328703        0.78930178
 C           -3.07145678        0.39061057        0.83831534
 C           -1.12303664       -2.35937878       -0.41000098
 C           -2.22239497       -1.49143394       -0.41881090
 C            1.00001098       -2.18141705       -1.47622613
 C           -0.36093679       -2.47916327       -1.56268857
 C            2.39551694       -0.37356856       -2.22597478
 C            1.61971445       -1.49982023       -2.52941957
 C            2.02877147        1.97538665       -2.72339278
 C            2.50406215        0.67017012       -3.14152677
 C            1.17327854        2.47896767       -3.76831851
 C           -0.62165157        2.71927260       -2.13793426
 C           -0.23113317        2.60475138       -3.46779112
 C           -2.36160078        2.30370107       -0.48484203
 C           -3.16437373        1.09818966       -0.35395443
 C           -1.94156875        2.40998599       -1.85875363
 C           -2.63351081       -0.91897231       -1.62762647
 C           -3.08983709        0.39064976       -1.61707007
 C           -2.57189571        1.33010770       -2.59937009
 C           -1.01418622       -2.34113217       -2.77661069
 C           -2.14591107       -1.43556607       -2.82655566
 C            1.14280190       -1.70868492       -3.82434041
 C           -0.22795586       -2.14501715       -3.97868714
 C            2.12270071        0.47019708       -4.52395053
 C            1.31616629        1.61022332       -4.92589389
 C            1.39362821       -0.72935129       -4.86605614
 C           -0.94742192        1.65713939       -4.31308861
 C           -1.92816762        0.84613964       -3.73332845
 C           -1.92396241       -0.53522123       -3.95080002
 C           -0.91108521       -1.15407075       -4.79250551
 C           -0.00236394        1.10950587       -5.27200433
 C            0.10362002       -0.32661680       -5.41157445
