   70
C70 / DATE: 7/ 1/2024 / Origin: Program Fullerene / C70 from database
 C            1.26542481       -0.17566658        4.47027070
 C            2.51515219       -0.41150768        3.77357370
 C            2.42250175       -1.70646165        3.11799575
 C            0.41807070       -1.33949612        4.26862597
 C            1.08846920       -2.22890819        3.34323661
 C           -0.91023015       -0.87281913        3.92560991
 C            0.48658907        1.00569439        4.14149164
 C           -0.87620100        0.58210292        3.87178455
 C            1.04941604        2.00388356        3.36022048
 C            2.96393988        0.55402503        2.78678070
 C            2.32145640        1.77955635        2.68188518
 C            2.87896549       -1.55092213        1.74810946
 C            3.29535708       -0.17167841        1.57400734
 C            2.15733956       -2.16043712        0.72377459
 C            0.37470211       -2.70599460        2.25166188
 C            1.05522770       -2.94706653        1.05581528
 C           -1.63615757       -1.55494337        2.95480619
 C           -1.01943310       -2.58747072        2.23883081
 C           -2.73101113       -0.90051930        2.39815747
 C           -1.63773173        1.23595093        2.90174839
 C           -2.73001373        0.55297487        2.36686358
 C            0.19783091        2.75551407        2.45799435
 C           -1.11862856        2.35535230        2.23595973
 C            2.24868377        2.42610919        1.38339760
 C            1.01163973        3.17484088        1.32692919
 C            3.08508550        0.41737278        0.33410774
 C            2.65896885        1.74819678        0.24299854
 C            2.26760615       -1.64987824       -0.57432854
 C            2.90809624       -0.42133722       -0.76203735
 C            1.50984119       -2.21333890       -1.60990260
 C            0.41497840       -3.65622471        0.05140353
 C            0.65213709       -3.27774855       -1.33086182
 C           -1.73557961       -3.24263512        1.24104473
 C           -0.99954028       -3.93911721        0.20085712
 C           -3.30607395       -1.37302915        1.14946542
 C           -2.85249872       -2.56154632        0.60632178
 C           -3.30671693        0.96559467        1.09987348
 C           -3.46855471       -0.22201397        0.27956539
 C           -1.77610280        2.87154954        1.12118346
 C           -2.86509867        2.13100485        0.50643350
 C            0.40253248        3.35996563        0.09149683
 C           -0.98789921        3.45914803        0.04732295
 C            2.25571612        2.23727451       -0.99982050
 C            1.10525012        3.04368395       -1.07681447
 C            2.96138163        0.14447876       -2.02603077
 C            2.73011773        1.57106821       -2.12844035
 C            1.39179188       -1.54575590       -2.83263740
 C            2.25351911       -0.49325131       -3.11702324
 C            0.21419718       -1.66811627       -3.56919908
 C           -0.61178984       -3.37810966       -2.04430059
 C           -1.64633864       -3.65752957       -1.06786414
 C           -2.66019443       -2.64672608       -0.83055477
 C           -0.88383989       -2.44419488       -3.02984554
 C           -2.93839319       -0.25197529       -1.01126834
 C           -2.64335422       -1.48470787       -1.60332499
 C           -1.99554705       -1.52056178       -2.83426496
 C           -2.65062973        2.14826987       -0.92895119
 C           -1.69201350        3.20239171       -1.19865172
 C           -2.56125134        0.94684734       -1.63333157
 C            0.47543672        3.26976045       -2.30227059
 C           -0.96796290        3.14971060       -2.37560138
 C            2.16447120        1.83584274       -3.43413744
 C            1.82493120        0.55454799       -4.03299422
 C            1.00720524        2.69314286       -3.52214121
 C           -0.37789147       -0.48694302       -4.17114678
 C           -1.65546276       -0.27903270       -3.50361001
 C           -1.91162924        0.93282104       -2.87170766
 C           -1.24686025        2.07745150       -3.31376842
 C            0.43286494        0.60508472       -4.44422377
 C           -0.06626504        1.93645223       -4.15055011
