   70
C70 / DATE: 7/ 1/2024 / Origin: Program Fullerene / C70 from database
 C            1.32698235        0.13713319        4.80692028
 C            0.55321567       -1.08416642        4.68807100
 C            1.36278310       -2.06643866        4.00253801
 C            2.56319954       -0.05700406        4.07219832
 C            2.60321937       -1.42498732        3.60611031
 C            2.64684543        0.99283437        3.08326374
 C            0.58174580        1.20163887        4.14880724
 C            1.42481823        1.77115032        3.12733678
 C           -0.72138167       -0.73455227        4.10174642
 C           -0.69689098        0.67101888        3.74542272
 C           -1.31255193       -1.59379691        3.19049192
 C            0.80462944       -2.70712930        2.82681121
 C           -0.54607304       -2.57859477        2.54769313
 C            2.78611638       -1.65921328        2.18444923
 C            1.73114584       -2.54156853        1.72381615
 C            3.14954375        0.70738828        1.82525159
 C            3.15830940       -0.61461087        1.35314849
 C            2.98525727        1.69842055        0.87399908
 C            0.86437104        2.14311144        1.90636098
 C            1.74524591        2.35498610        0.84734801
 C           -1.22525223        1.02801494        2.50502502
 C           -0.46634269        1.80542831        1.61115428
 C           -2.38381791       -1.07891643        2.47761719
 C           -2.25918755        0.23557372        2.00032464
 C           -3.11162747       -1.99777055        1.74168758
 C           -0.96614070       -2.98457499        1.28591227
 C           -2.33895644       -3.03811087        1.09407109
 C            1.21219549       -2.36469960        0.43420664
 C           -0.12553589       -2.70634549        0.19219277
 C            3.00872452       -0.81132323       -0.01821694
 C            1.88800459       -1.52606960       -0.46622340
 C            3.64767674        1.49134879       -0.32002221
 C            3.58251633        0.14311930       -0.84660755
 C            3.39845429        2.40672763       -1.40396454
 C            1.23836655        2.81413381       -0.36748507
 C            2.14893588        3.13074583       -1.37481876
 C           -0.94674575        2.00498366        0.30795208
 C           -0.10555771        2.55665453       -0.67883829
 C           -2.85810785        0.59986561        0.79393589
 C           -2.21800775        1.52589118       -0.03320122
 C           -4.08644004       -1.51183239        0.79805518
 C           -3.91194900       -0.16776683        0.29104686
 C           -2.85270784       -3.20626497       -0.24169751
 C           -4.07430850       -2.42441580       -0.33122651
 C           -0.67051315       -2.47949085       -1.07996672
 C           -1.99447247       -2.83347891       -1.34415516
 C            1.28580944       -1.18785811       -1.68887761
 C           -0.01042213       -1.63533826       -1.97727004
 C            3.15208792        0.24437810       -2.22284029
 C            3.40364063        1.62102242       -2.62065063
 C            1.96648948       -0.37669249       -2.60655350
 C            1.70340490        3.22261226       -2.74431981
 C            2.47938365        2.26268312       -3.52696900
 C           -0.58670138        2.76471776       -1.98508621
 C            0.30880977        2.99185213       -3.02980189
 C           -2.71804489        1.74676005       -1.31042027
 C           -1.83440717        2.25994437       -2.33721393
 C           -4.13809708       -0.22786350       -1.14248556
 C           -3.98903803       -1.61946247       -1.53029053
 C           -2.77897443       -1.99956681       -2.23812467
 C           -3.52262137        0.71616811       -1.94211335
 C           -0.73192755       -1.07707828       -3.04190355
 C           -1.92450400        1.35795311       -3.48279649
 C           -2.12040398       -1.01455187       -2.95461287
 C           -2.72832316        0.23585043       -3.05556909
 C            1.31161134        0.06834269       -3.75426285
 C            1.53787537        1.42326606       -4.23308685
 C            0.26147951        2.10251271       -4.17484059
 C           -0.10464602       -0.18979272       -3.90725769
 C           -0.76221516        1.08309480       -4.18119493
