   70
C70 / DATE: 7/ 1/2024 / Origin: Program Fullerene / C70 from database
 C            1.60243262       -0.02862303        4.68253419
 C            0.79992302       -1.22778934        4.53912715
 C            1.27575649       -1.95802793        3.37582970
 C            2.62082649       -0.06146368        3.65317223
 C            2.47647968       -1.29483040        2.90152011
 C            2.54214876        1.18216346        2.91297589
 C            0.74062631        1.10886113        4.40726104
 C            1.27747010        1.80849157        3.25802917
 C           -0.58813772       -0.82180909        4.56600975
 C           -0.61904837        0.62022912        4.33674659
 C           -1.50017704       -1.61035894        3.88303710
 C            0.34489560       -2.42142685        2.44872696
 C           -1.00649863       -2.46892598        2.81029410
 C            0.69638910       -2.48708803        1.09539997
 C            2.71505139       -1.23435873        1.53566053
 C            1.94672086       -2.01405490        0.67078563
 C            2.89382474        1.14808903        1.57356248
 C            3.29575384       -0.07419096        1.03421102
 C            2.29282905        2.06850699        0.72179438
 C            0.41619291        2.17603750        2.22564330
 C            0.95732312        2.40930480        0.95428828
 C           -1.47036522        1.12801287        3.35690401
 C           -0.96488335        1.99412802        2.37413902
 C           -2.71032316       -0.97424000        3.40230454
 C           -2.66430074        0.44797043        3.12361575
 C           -2.02157654       -2.50464844        1.76978014
 C           -3.11063603       -1.64481140        2.17973557
 C           -0.29203562       -2.77187449        0.15281772
 C           -1.61514254       -2.47170329        0.44533177
 C            0.06113721       -2.96862551       -1.17080763
 C            2.26124195       -2.00264616       -0.69428172
 C            1.39022157       -2.58741085       -1.60684222
 C            3.74520691       -0.08886233       -0.27638620
 C            3.23260671       -1.11936388       -1.16473820
 C            2.82695844        2.20245875       -0.55333115
 C            3.73467910        1.16470318       -1.00674795
 C            1.94688750        2.52585597       -1.66015043
 C            0.11378235        2.70865018       -0.12159227
 C            0.57527545        2.58304100       -1.43187403
 C           -1.81252978        2.45919741        1.37292679
 C           -1.24427150        2.87132172        0.09991618
 C           -3.39175064        0.66585151        1.88808905
 C           -3.56644513       -0.63063765        1.25087131
 C           -3.05179506        1.75069822        1.09637414
 C           -2.38498200       -1.78984794       -0.50219859
 C           -3.23939728       -0.75587657       -0.09450210
 C           -0.88220117       -2.58533217       -2.20793247
 C           -2.04655977       -1.90071156       -1.85293611
 C            1.27993063       -2.03831038       -2.95174662
 C           -0.10916854       -2.17263694       -3.37039652
 C            3.09342459       -0.53608629       -2.49267249
 C            3.42982174        0.87329967       -2.39273464
 C            2.45546040        1.84686540       -2.84248574
 C            2.02027695       -0.90754580       -3.29754125
 C            1.55463517        1.45452583       -3.81556223
 C            1.47829931        0.04252423       -4.16591665
 C           -0.31879503        2.29364361       -2.47265861
 C            0.18785717        1.92416733       -3.72117255
 C           -2.17440274        2.49651982       -0.94801733
 C           -3.16849661        1.62371439       -0.34599174
 C           -3.38046944        0.36642655       -0.90694454
 C           -1.69037631        2.16538804       -2.20944493
 C           -2.63852585       -1.02920735       -2.76261413
 C           -3.17509010        0.22505128       -2.27083532
 C           -2.45947709        1.27936991       -2.96413629
 C           -0.65176692       -1.26920606       -4.27233320
 C            0.16806713       -0.17458120       -4.75451777
 C           -0.58941721        1.05745926       -4.58615547
 C           -1.98282923       -0.74625780       -4.02998303
 C           -1.92854198        0.70084373       -4.18123347
