   70
C70 / DATE: 7/ 1/2024 / Origin: Program Fullerene / C70 from database
 C            1.41946743        0.00119759        4.95140107
 C            0.62533261       -1.18913601        4.69950315
 C            1.44778631       -2.11568893        3.96053905
 C            2.63040105       -0.10143592        4.15495558
 C            2.68593603       -1.43391698        3.60529324
 C            2.64883614        1.01553560        3.23564738
 C            0.66601407        1.14573391        4.46641646
 C            1.47256940        1.83445598        3.48771017
 C           -0.63067529       -0.76805980        4.11169821
 C           -0.63347760        0.68053897        4.05057800
 C           -1.16659715       -1.45783551        3.02379841
 C            0.90894997       -2.69277923        2.74591517
 C           -0.40834901       -2.44205433        2.36291919
 C            2.86985476       -1.58307853        2.17298761
 C            1.93689510       -2.59873819        1.73133820
 C            3.03978979        0.82906481        1.91166382
 C            3.06127450       -0.46483974        1.35954532
 C            2.82491844        1.90959038        1.06572926
 C            0.84721752        2.42627326        2.39234956
 C            1.66275853        2.74749273        1.31401788
 C           -1.22634737        1.26081081        2.93987292
 C           -0.51606097        2.18712199        2.15769688
 C           -2.20718313       -0.83537524        2.32873523
 C           -2.27211725        0.56309085        2.34753647
 C           -2.83765619       -1.54825784        1.31552452
 C           -0.77435068       -2.81478322        1.06659267
 C           -2.08799451       -2.59897936        0.66094505
 C            1.52969084       -2.58120326        0.40842147
 C            0.23188570       -2.98305118        0.10753060
 C            2.88503344       -0.62807305       -0.02066469
 C            2.19919668       -1.75720890       -0.49391203
 C            2.94460381        1.73429808       -0.36354039
 C            3.11058798        0.45517779       -0.87195521
 C            1.06840528        3.07386114        0.03215274
 C            1.97841968        2.61630211       -0.99992436
 C           -1.10140372        2.63166553        0.96394216
 C           -0.29270553        2.90025283       -0.14901469
 C           -3.05321327        1.24612010        1.42642221
 C           -2.46377085        2.40373746        0.78302787
 C           -3.61275994       -0.85123546        0.30357877
 C           -3.80859524        0.51414353        0.42669257
 C           -2.42337578       -2.57465078       -0.75337820
 C           -3.26294556       -1.41407820       -0.99364479
 C           -0.09830439       -3.16240079       -1.23025768
 C           -1.45608375       -2.90942349       -1.68269722
 C            1.90751920       -1.88140198       -1.85290062
 C            0.81039734       -2.65132509       -2.24478596
 C            2.94661881        0.29114499       -2.24169103
 C            2.46588438       -0.97820717       -2.74770077
 C            1.47696803        2.24493379       -2.24150131
 C            2.23507127        1.32796287       -2.96873941
 C           -0.77604511        2.70802004       -1.44732826
 C            0.09995983        2.35834902       -2.48472250
 C           -3.03948408        2.51326328       -0.54059437
 C           -3.85600278        1.32965092       -0.77170084
 C           -2.14861778        2.65189444       -1.67230385
 C           -2.99516446       -0.57110018       -2.07448983
 C           -3.43198840        0.75291507       -2.03531301
 C           -2.65462215        1.77453813       -2.71116514
 C           -1.37570576       -2.15778984       -2.92289404
 C            0.00141332       -2.24362312       -3.38375731
 C           -2.08312857       -0.96246488       -3.06098203
 C            1.80206190       -0.71652618       -4.01664535
 C            1.70043971        0.72650700       -4.17224235
 C            0.48911153       -1.28566178       -4.26005738
 C           -0.43626868        1.91102023       -3.69588132
 C           -1.78817131        1.38526480       -3.71469971
 C           -1.66776191       -0.03086465       -4.01258210
 C            0.34431932        1.04235008       -4.55618723
 C           -0.38866156       -0.20903130       -4.68282394
