   70
C70 / DATE: 7/ 1/2024 / Origin: Program Fullerene / C70 from database
 C            1.24321483        0.11429905        4.32313332
 C            2.53295993       -0.21826447        3.76251309
 C            2.54254581       -1.65013670        3.53308170
 C            0.39409966       -1.06648447        4.22943927
 C            1.16727416       -2.11248685        3.59796860
 C           -0.85681992       -0.66122413        3.61950223
 C            0.50773340        1.21262145        3.73830245
 C           -0.87316382        0.78639961        3.60732684
 C            1.06611355        1.95034003        2.69780167
 C            2.93814718        0.42561488        2.52554698
 C            2.12622706        1.40629753        1.95833371
 C            3.28488893       -1.89418041        2.31306961
 C            3.50226735       -0.60089084        1.66813058
 C            2.89694778       -2.97058503        1.52927422
 C            0.64225244       -2.78161657        2.49616279
 C            1.53140745       -3.46217551        1.66097238
 C           -1.32077949       -1.33444987        2.49640202
 C           -0.64430777       -2.47078087        2.03282692
 C           -2.25994192       -0.69553560        1.67786397
 C           -1.66067092        1.43150846        2.66449361
 C           -2.52349566        0.67238726        1.87410919
 C            0.22917453        2.87610524        2.08945109
 C           -1.20496045        2.65299814        2.17169028
 C            0.52172644        3.33855088        0.74799383
 C            2.20349189        1.63380709        0.57986355
 C            1.54035172        2.73291901        0.02383770
 C            3.35176700       -0.48580398        0.28711253
 C            2.79979303        0.67780640       -0.25568991
 C            3.20619279       -2.92898038        0.11649714
 C            3.40986470       -1.63396256       -0.50234113
 C            1.09576726       -3.93157614        0.35549900
 C            2.13276478       -3.59811333       -0.60087860
 C           -1.14620953       -3.14893313        0.92851011
 C           -0.22707520       -3.75892833       -0.01494572
 C           -2.83554383       -1.39550202        0.60716142
 C           -2.22026569       -2.55597729        0.15697218
 C           -3.64500751       -0.72793384       -0.30527965
 C           -3.37963552        1.35279668        1.01428313
 C           -4.06025744        0.62725377       -0.03199969
 C           -1.81592470        3.22428765        0.98303278
 C           -0.74483635        3.62039198        0.08533478
 C           -2.94832243        2.62593729        0.46074552
 C           -0.84809175        3.38880521       -1.28484003
 C            1.56074358        2.92809823       -1.35443736
 C            0.34091433        3.37223896       -2.01352080
 C            2.56296164        0.72352793       -1.62866645
 C            2.17380021        1.92546190       -2.20283694
 C            2.70661436       -1.65373923       -1.77117568
 C            1.78952579       -2.77881528       -1.75103564
 C            2.25112595       -0.45894071       -2.29406609
 C           -0.53567716       -3.21736117       -1.33198804
 C           -1.86371182       -2.64613197       -1.25182230
 C            0.44771536       -2.55543490       -2.06264184
 C           -3.31048930       -0.82046639       -1.71795227
 C           -2.20962019       -1.59269006       -2.08843713
 C           -3.93450578        1.39378183       -1.26162451
 C           -3.10458228        2.55344061       -0.97942825
 C           -2.02227698        2.82560998       -1.81624425
 C           -3.52861323        0.48517486       -2.31985875
 C           -2.02507877        2.24911923       -3.08935084
 C           -2.63382762        0.94177071       -3.27377282
 C            0.36518675        2.87293907       -3.37206889
 C            1.43139077        1.89008266       -3.45486265
 C           -0.83249649        2.27165235       -3.90970596
 C            1.11770604       -0.49100522       -3.09518806
 C            0.10693059       -1.41011748       -2.79067085
 C           -1.24152939       -1.04908442       -2.93876544
 C           -1.57835245        0.05279321       -3.72279312
 C            0.83973648        0.62963991       -3.86343608
 C           -0.52525416        0.89185014       -4.26191446
