   70
C70 / DATE: 7/ 1/2024 / Origin: Program Fullerene / C70 from database
 C            1.43356984       -0.00668018        4.85576924
 C            0.66441360       -1.21941316        4.63751635
 C            1.56066016       -2.19172066        4.06531864
 C            2.64507973       -0.11291810        4.06082401
 C            2.79163081       -1.49855268        3.69460195
 C            2.56843766        0.87680727        3.00401226
 C            0.66176029        1.09920355        4.32386937
 C            1.46725740        1.76703537        3.32180367
 C           -0.52719319       -0.86009086        3.89458092
 C           -0.62687979        0.58877436        3.90144881
 C           -0.85937060       -1.54035396        2.72212829
 C            1.13049455       -2.92573115        2.89167796
 C           -0.07607839       -2.60812663        2.25601939
 C            3.04737597       -1.82586696        2.30668885
 C            2.31803678       -3.05388361        2.07561831
 C            2.75444021        0.50654800        1.66988630
 C            2.99873979       -0.83266453        1.32109650
 C            2.32951221        1.39727133        0.68519168
 C            0.79691806        2.36000036        2.26286906
 C            1.44026216        2.42173054        1.03140258
 C           -1.22360110        1.20396773        2.80947201
 C           -0.59529179        2.32142322        2.26420404
 C           -1.76093265       -0.93600847        1.85356679
 C           -2.02448805        0.43411111        1.97058056
 C           -2.17422763       -1.62336355        0.72188870
 C           -0.26555150       -3.08228758        0.94768725
 C           -1.32657670       -2.59002944        0.16694458
 C            2.14685962       -3.45421528        0.77080377
 C            0.79817993       -3.74980705        0.33361521
 C            2.83756257       -1.24261591       -0.01078717
 C            2.69741730       -2.60726092       -0.26830240
 C            2.48557817        1.04939709       -0.65225786
 C            2.49458934       -0.30351150       -0.99406104
 C            2.19905480        2.00063594       -1.62637974
 C            0.85741997        3.19046874        0.02594552
 C            1.42617509        3.16700540       -1.24206912
 C           -1.25769016        3.00975955        1.25901772
 C           -0.47220815        3.58673461        0.18036717
 C           -2.75647912        1.08447575        0.97508315
 C           -2.43691912        2.40370080        0.66010008
 C           -3.23099800       -1.10076530       -0.01133142
 C           -3.47851232        0.32783315        0.05897085
 C           -3.40849443       -1.51583378       -1.38177830
 C           -1.38504827       -2.87926479       -1.21151905
 C           -2.34250516       -2.26098901       -2.00585557
 C            0.87552542       -3.79513618       -1.10774734
 C            2.06253852       -3.04178475       -1.49203270
 C           -0.23024176       -3.27478948       -1.86935167
 C            1.92641016       -0.71003160       -2.21446737
 C            1.64913260       -2.04498203       -2.45068035
 C            0.31322494       -2.39016988       -2.88514904
 C            1.68359619        1.55019594       -2.90231576
 C            1.27379801        0.22786174       -3.00666864
 C            0.63990666        3.58020009       -2.39381755
 C            0.87479408        2.61623634       -3.45584287
 C           -1.34684901        3.69130251       -0.97717369
 C           -2.51087494        2.85152003       -0.72323093
 C           -0.79473209        3.74236514       -2.24785261
 C           -3.64694782        0.82025502       -1.30118742
 C           -3.66108936       -0.33057673       -2.18551905
 C           -2.97859180        1.97520158       -1.70061807
 C           -1.88227262       -1.50357702       -3.16122382
 C           -0.50717609       -1.37798227       -3.37360569
 C            0.03596769       -0.10523336       -3.58717826
 C           -2.75514309       -0.35038533       -3.31907510
 C           -0.40036750        2.28175081       -4.04549318
 C           -1.43441627        3.00931542       -3.32328260
 C           -2.49447908        2.06538545       -3.00717359
 C           -0.80218479        0.88940274       -4.09104281
 C           -2.21190794        0.84872698       -3.75449970
