   70
C70 / DATE: 7/ 1/2024 / Origin: Program Fullerene / C70 from database
 C            1.21917793       -0.05396360        4.40003391
 C            2.45713464       -0.29374708        3.69943847
 C            2.41604575       -1.66095984        3.20800505
 C            0.39133157       -1.24379351        4.24757809
 C            1.04096862       -2.09776898        3.28043378
 C           -0.95413564       -0.79164052        3.97520085
 C            0.40303843        1.07464925        4.00215062
 C           -0.96407879        0.64541757        4.19817655
 C            0.71483336        1.79554979        2.84814333
 C            2.78875045        0.55133809        2.57111105
 C            1.87882844        1.49943040        2.11561528
 C            3.05403918       -1.66843157        1.90981018
 C            3.43917155       -0.29927857        1.59688647
 C            2.49810892       -2.43069404        0.88890925
 C            0.39092494       -2.40194447        2.08896985
 C            1.15610571       -2.82740486        0.99860587
 C           -1.64186748       -1.30095948        2.87604007
 C           -0.94552583       -2.01723501        1.88985225
 C           -2.84994198       -0.68990657        2.54788622
 C           -1.97489796        1.38658349        3.61248502
 C           -3.08831337        0.66034609        3.03140461
 C           -0.28149737        2.59827389        2.27856841
 C           -1.61119381        2.43937941        2.67350346
 C           -0.02284552        3.28013248        1.09515468
 C            2.02075200        1.97500189        0.81330956
 C            1.21748426        3.02638646        0.39150236
 C            3.44265184        0.08389509        0.25879292
 C            2.81007753        1.27666727       -0.11204763
 C            3.05027097       -2.24350276       -0.37282754
 C            3.58513879       -0.93006725       -0.68777506
 C            2.37450861       -2.74953622       -1.55141799
 C            0.49673980       -3.36205398       -0.10272132
 C            1.12744170       -3.33904774       -1.41186986
 C           -1.55135474       -2.25468229        0.65062331
 C           -0.91282623       -3.06541757       -0.27862444
 C           -3.34846127       -0.76080353        1.18577358
 C           -2.61205517       -1.45417177        0.23179634
 C           -3.60176025        1.44694205        1.92751955
 C           -2.66314626        2.52434125        1.67011358
 C           -3.91708821        0.53603880        0.84869326
 C           -1.07970096        3.40096940        0.10007274
 C           -2.32249545        2.82570112        0.35274100
 C            0.96932180        3.22472109       -1.02457968
 C           -0.46951285        3.26681158       -1.21439107
 C            2.77465343        1.63634120       -1.46029658
 C            1.74893489        2.54576806       -1.94221130
 C            3.32565211       -0.66407670       -2.09117821
 C            2.62006132       -1.81383430       -2.63922491
 C            2.96999676        0.61901860       -2.48013214
 C            1.65696795       -1.63089900       -3.62472386
 C            0.09460904       -3.08801442       -2.40306670
 C           -1.15279796       -2.83946810       -1.69296365
 C            0.39532151       -2.35179198       -3.54273976
 C           -2.75000760       -1.12712350       -1.12233172
 C           -1.98356491       -1.79119700       -2.08340325
 C           -3.78141423        0.99603709       -0.44805440
 C           -3.02324205        2.21888350       -0.69243870
 C           -3.40031721        0.05311468       -1.47860293
 C           -1.06780146        2.45256883       -2.17237026
 C           -2.40007844        2.08398934       -2.00306539
 C           -2.87907610        0.83787448       -2.57811920
 C            1.10915411        1.92062550       -3.08643611
 C            1.95360663        0.81014515       -3.50350475
 C            1.37884042       -0.29243397       -4.12412013
 C           -0.28051033        1.79412333       -3.12349530
 C           -0.63267331       -1.51055577       -4.12333528
 C           -1.82379755       -1.21706069       -3.34610312
 C           -2.10171816        0.19761972       -3.52433948
 C           -0.02439618       -0.23887121       -4.48700595
 C           -0.85655032        0.81765192       -3.93538384
