   70
C70 / DATE: 7/ 1/2024 / Origin: Program Fullerene / C70 from database
 C            1.53742816        0.09846038        4.53017643
 C            0.75159536       -1.11419610        4.44983343
 C            1.31168346       -1.95992481        3.40496378
 C            2.62797194       -0.03065182        3.58630952
 C            2.47959193       -1.28740828        2.87540086
 C            2.65590930        1.18040381        2.79551852
 C            0.69356368        1.19246592        4.07447005
 C            1.38340794        1.85346433        2.98851974
 C           -0.63410311       -0.71383332        4.32097608
 C           -0.62557410        0.65423592        3.82207815
 C           -1.48733674       -1.61284508        3.71262176
 C            0.42573242       -2.59154951        2.53744001
 C           -0.89130996       -2.71681817        2.97552799
 C            0.70217790       -2.62270875        1.15873268
 C            2.69431027       -1.27276539        1.50557735
 C            1.88881410       -2.04769245        0.66439159
 C            3.11815700        1.08762377        1.49446072
 C            3.37310916       -0.18166197        0.96929750
 C            2.72160252        2.08187512        0.61235519
 C            0.67141384        2.22853570        1.85142657
 C            1.40655610        2.55686788        0.71168615
 C           -1.25284361        0.93647243        2.60712203
 C           -0.66698495        1.83688896        1.70306462
 C           -2.52345309       -1.09170455        2.84832269
 C           -2.30402819        0.11651503        2.18614175
 C           -1.90246581       -3.19667400        2.06377896
 C           -2.98811838       -2.22765363        2.08716305
 C           -0.23264774       -3.18345196        0.27043242
 C           -1.54030789       -3.40712105        0.68162334
 C           -0.01068848       -3.12085330       -1.09635852
 C            2.16256812       -2.05606609       -0.71217523
 C            1.21269717       -2.54328369       -1.60014839
 C            3.81495827       -0.27222342       -0.34196907
 C            3.14078855       -1.20481519       -1.22636438
 C            3.41257730        2.16885308       -0.58730587
 C            4.03765540        0.95926953       -1.08410766
 C            2.80639074        2.84313391       -1.71125567
 C            0.72652123        3.00148558       -0.42200865
 C            1.43104550        3.27770769       -1.59422820
 C           -1.32946660        2.13251330        0.50870966
 C           -0.66168798        2.86543929       -0.48393516
 C           -2.88934016        0.33646002        0.93562619
 C           -2.53881877        1.48678210        0.22260122
 C           -3.39632381       -2.00112733        0.72452627
 C           -2.62817908       -2.88850288       -0.13171988
 C           -3.58528039       -0.70218852        0.28953068
 C           -1.09933545       -2.71292424       -1.97663603
 C           -2.36724595       -2.47761035       -1.44129222
 C            0.88696287       -1.76230701       -2.78566343
 C           -0.54809244       -1.79549869       -2.96506224
 C            2.86791632       -0.50771405       -2.47528331
 C            3.57653783        0.75260389       -2.44534836
 C            2.87792664        1.94573954       -2.85811305
 C            1.58753183       -0.58878941       -3.02132448
 C            0.81216404        2.97164834       -2.86850077
 C            1.53032258        1.81879078       -3.37512065
 C            0.88562381        0.57631977       -3.37594627
 C           -1.29779126        3.15173356       -1.69099882
 C           -0.56431195        2.94297169       -2.92543175
 C           -3.25034676        1.81111882       -0.92869532
 C           -2.63352404        2.64890161       -1.93178351
 C           -3.86741942       -0.57591067       -1.05939093
 C           -3.14944495       -1.44957237       -1.97696255
 C           -3.91723029        0.74451703       -1.63979292
 C           -1.23146856       -0.62718120       -3.26729495
 C           -0.51479967        0.56155015       -3.47756477
 C           -1.18400113        1.78915932       -3.53951329
 C           -2.57969862        1.87863483       -3.16976122
 C           -2.60370517       -0.60224608       -3.02453792
 C           -3.31583879        0.65833226       -2.95881150
