   70
C70 / DATE: 7/ 1/2024 / Origin: Program Fullerene / C70 from database
 C            0.98795751        0.08624738        4.66983930
 C            2.26302927       -0.27890843        4.09584212
 C            2.24663794       -1.71784467        3.91135391
 C            0.16632185       -1.11830255        4.71526873
 C            0.85674302       -2.12405111        3.93889005
 C           -1.17153176       -0.74598598        4.32050719
 C            0.19894486        1.10708720        4.01299379
 C           -1.17680101        0.69774987        4.16465233
 C            0.59512667        1.61511435        2.77407149
 C            2.64187640        0.30175416        2.82450309
 C            1.76977102        1.15869337        2.16155775
 C            3.00278608       -2.01340251        2.71483658
 C            3.29955149       -0.74104814        2.06000720
 C            2.55347853       -3.05908517        1.92573074
 C            0.28857607       -2.61619756        2.75969969
 C            1.11740588       -3.33137358        1.90223505
 C           -1.70976970       -1.29819842        3.09175183
 C           -0.88246897       -2.03520669        2.24853767
 C           -2.07855111        0.99809869        3.07983986
 C           -2.53500940       -0.25743592        2.52041467
 C           -0.35942438        2.26571049        1.98379531
 C           -1.72231045        1.97884932        2.16846734
 C            0.04778084        2.83684024        0.77268685
 C            1.93250976        1.34366928        0.79214100
 C            1.20106426        2.34288144        0.15650367
 C            3.27389875       -0.67602557        0.66535818
 C            2.65770742        0.41072474        0.03558728
 C            3.02023154       -3.10431971        0.56077299
 C            3.43391979       -1.85627079       -0.05292757
 C            0.72310527       -3.50891576        0.51791978
 C            1.94138257       -3.64116218       -0.24468978
 C           -1.11080319       -1.99131940        0.86280760
 C           -0.30621021       -2.73123722       -0.00622974
 C           -2.78751198       -0.26405011        1.15813469
 C           -2.15030938       -1.20711624        0.34356086
 C           -2.56281641        2.11670462        1.07248555
 C           -3.16383950        0.94647584        0.58455957
 C           -0.90419806        3.52388411        0.01787639
 C           -2.29442087        3.17244441        0.21424434
 C           -0.70019847        3.73897464       -1.40573668
 C            1.46109887        2.61927168       -1.18099238
 C            0.43572502        3.22795461       -2.00892610
 C            2.60822540        0.45988553       -1.36400629
 C            2.14711019        1.62116917       -1.98171481
 C            2.98679781       -1.90812813       -1.42847027
 C            2.00013325       -2.97476964       -1.51882872
 C            2.70884551       -0.72408763       -2.10568296
 C           -0.33822108       -2.46055274       -1.38271663
 C            0.81540087       -2.67044675       -2.16473065
 C           -2.33587680       -1.12735099       -1.04384039
 C           -1.41622740       -1.73301317       -1.90850841
 C           -3.67678043        0.89981856       -0.70223889
 C           -3.25919777       -0.20164165       -1.54951220
 C           -2.97505508        3.25753609       -1.05949546
 C           -1.97973444        3.57215492       -2.07114863
 C           -3.72298622        2.10491963       -1.50759841
 C           -3.11175729        0.31870650       -2.90031109
 C           -2.09809438        2.58861274       -3.13307491
 C           -3.25714741        1.76243658       -2.83766169
 C            0.30660178        2.42214073       -3.21465376
 C            1.46440004        1.53895700       -3.26445486
 C           -0.95230877        1.97192468       -3.62906966
 C            1.95810250       -0.85444735       -3.27425793
 C            0.97698857       -1.92496225       -3.31941894
 C            1.36829793        0.31302727       -3.90079523
 C           -1.42939703       -1.39930925       -3.26492916
 C           -2.10968058       -0.19692630       -3.69885942
 C           -1.08383496        0.70742008       -4.20142275
 C           -0.19058330       -1.44216707       -4.00514814
 C            0.09552325       -0.09257930       -4.46738194
