   70
C70 / DATE: 7/ 1/2024 / Origin: Program Fullerene / C70 from database
 C            1.23411355        0.09336540        4.54542883
 C            2.51626367       -0.24077427        3.97529771
 C            2.48373451       -1.64237887        3.58756672
 C            0.40334723       -1.10021543        4.51260816
 C            1.13150819       -2.13101546        3.79360716
 C           -0.91592895       -0.71788568        4.04096986
 C            0.47765731        1.17286542        3.94680756
 C           -0.87735413        0.69715605        3.71575564
 C            1.06082215        2.00571001        2.99048313
 C            2.97910497        0.52096760        2.83450644
 C            2.31176973        1.67971892        2.43425779
 C            3.07526969       -1.75800588        2.26627390
 C            3.40710571       -0.41938230        1.81065525
 C            2.52030862       -2.65066585        1.36645761
 C            0.49407200       -2.81850549        2.76297130
 C            1.24948595       -3.28516714        1.68847327
 C           -1.59378758       -1.57851313        3.19580154
 C           -0.89143222       -2.72722672        2.64043607
 C           -2.41431266       -1.01898646        2.13703919
 C           -1.56901946        1.18708579        2.60839382
 C           -2.22774316        0.30026490        1.74618206
 C            0.19427118        2.85047170        2.29864290
 C           -1.19017349        2.43502080        2.13544541
 C            0.61291617        3.49981909        1.06980755
 C            2.67634258        2.20364551        1.19499180
 C            1.83739072        3.18072264        0.52534474
 C            3.23212092       -0.06410148        0.47355547
 C            3.19389765        1.29252860        0.18606228
 C            2.48286460       -2.29519801       -0.04050883
 C            2.64320608       -0.96911154       -0.41969543
 C            0.60212384       -3.61399505        0.42914380
 C            1.42807905       -3.07532020       -0.64523748
 C           -1.53609627       -3.05675752        1.37991230
 C           -2.54845392       -2.03902931        1.12294403
 C           -0.78577178       -3.55073327        0.31382232
 C           -2.79579625       -1.67231747       -0.19061571
 C           -2.50965516        0.67163018        0.42266693
 C           -2.80239745       -0.31262393       -0.54328477
 C           -1.63692061        2.86935950        0.83279601
 C           -0.54512503        3.59198902        0.19979586
 C           -2.40699180        2.01790024        0.05331039
 C           -0.40800400        3.49209914       -1.18327842
 C            1.93596491        2.94541698       -0.90342788
 C            2.71665095        1.73481145       -1.10303664
 C            0.84341795        3.16595335       -1.73972479
 C            2.02970208       -0.51131958       -1.59575887
 C            2.26509105        0.80034186       -2.02415132
 C            0.79960784       -2.60927335       -1.78933290
 C            1.11541551       -1.33356667       -2.28530214
 C           -1.33010213       -3.45912388       -0.96403016
 C           -2.50277985       -2.62520009       -1.15620802
 C           -0.44128571       -3.16243209       -2.07286152
 C           -2.54349962       -2.26037172       -2.55204804
 C           -1.24822140       -2.59792224       -3.12800893
 C           -3.01072088        0.05268158       -1.88373747
 C           -2.81766663       -0.88442665       -2.89699536
 C           -2.58910890        2.38495910       -1.27210178
 C           -1.57908534        3.22773183       -1.89476541
 C           -2.99798822        1.39461817       -2.24169881
 C           -1.52473164        2.89696632       -3.30251385
 C           -2.42391368        1.77652767       -3.52594326
 C            0.91410530        2.57798892       -3.00338007
 C            1.59060799        1.29570822       -3.13064697
 C           -0.24283702        2.56289695       -3.87251952
 C            0.44495821       -0.84786247       -3.42029896
 C           -0.76491584       -1.41936655       -3.80976807
 C           -1.92050597       -0.55923191       -3.99130308
 C           -1.71011445        0.77492598       -4.30004707
 C            0.73867374        0.42083176       -3.90321295
 C           -0.33953041        1.23332702       -4.45277034
