   70
C70 / DATE: 7/ 1/2024 / Origin: Program Fullerene / C70 from database
 C            1.50907194       -0.37879102        5.61460856
 C            0.66343898       -1.52014515        5.32599865
 C            1.29760754       -2.26170679        4.25659343
 C            2.61315711       -0.38525661        4.66312411
 C            2.38289586       -1.46290171        3.72573868
 C            2.74083387        0.95368694        4.14456209
 C            0.72966739        0.81279781        5.34775738
 C            1.60669196        1.72277316        4.64382954
 C           -0.60340731       -1.02808667        4.80126676
 C           -0.51105129        0.40821520        4.69577360
 C            0.25132936       -2.62926555        3.33677228
 C           -0.89535181       -1.77970096        3.59844673
 C            0.58557189       -2.77011445        2.00970795
 C            2.39226178       -1.22081406        2.34808561
 C            1.74161404       -2.14045441        1.53187999
 C            2.79008256        1.14500985        2.70322485
 C            2.61811270        0.06693750        1.83846240
 C            1.06144931        2.43106541        3.51182142
 C            2.03565887        2.34541662        2.43942667
 C           -0.86999060        1.01660982        3.49281789
 C           -0.27383599        2.23978297        3.17274867
 C           -1.46916395       -1.13113399        2.49837939
 C           -1.51400832        0.26788227        2.48192032
 C           -0.47906993       -2.81998040        1.13793116
 C           -1.43465973       -1.80951727        1.27321805
 C           -0.17221826       -3.27612732       -0.11937821
 C            1.86233652       -2.00745148        0.15014408
 C            1.14708125       -2.92569805       -0.60518079
 C            2.26619537        0.34001382        0.50656052
 C            2.05953166       -0.72446448       -0.37632382
 C            1.55738925        2.56373182        1.15720516
 C            1.84198901        1.63073865        0.14895020
 C           -0.68761190        2.88230647        2.02501037
 C            0.35244385        3.24301936        1.08043174
 C           -1.94161071        0.92044586        1.31856338
 C           -1.74820040        2.28912226        1.24057740
 C           -1.93353135       -1.18344629        0.12042227
 C           -2.15006517        0.19678391        0.13081577
 C           -1.08765380       -3.00372327       -1.19068989
 C           -1.88655959       -1.86922614       -1.10017073
 C            1.02863625       -2.73285503       -2.02832274
 C           -0.30018176       -3.20546885       -2.38371965
 C            1.73133719       -0.46331884       -1.71679259
 C            1.47609344       -1.53921208       -2.57927274
 C            1.31544583        1.85666176       -1.13497356
 C            1.37890445        0.83927364       -2.10062460
 C           -0.27530824        3.36198009       -0.20046512
 C           -1.64573671        2.90193509       -0.05824654
 C            0.41601910        2.92095977       -1.31420598
 C           -2.39677068        0.87432949       -1.08075254
 C           -2.18248470        2.26233215       -1.15739756
 C           -2.25715516       -1.23267395       -2.28773128
 C           -2.54464676        0.14026669       -2.27487682
 C           -0.82953165       -2.76849461       -3.57481367
 C           -1.98735061       -1.89534014       -3.49751619
 C            1.13805417       -1.29887900       -3.90729260
 C            0.08788116       -2.12357995       -4.48830010
 C            0.89769424        1.08410736       -3.39600941
 C            0.90549115        0.06184957       -4.34302937
 C           -0.30958115        2.98902781       -2.49036282
 C           -1.74360865        2.78121729       -2.36451075
 C            0.11629337        2.21385144       -3.62496515
 C           -2.71986092        0.83303181       -3.48286013
 C           -2.20597393        2.17499988       -3.57954752
 C           -1.06170682        2.12064135       -4.47178920
 C           -2.03243832       -1.18452558       -4.75923681
 C           -0.71408383       -1.30209857       -5.36880349
 C           -0.12705862        0.02112263       -5.37534838
 C           -2.37322027        0.21330569       -4.74739577
 C           -1.23357350        0.94721945       -5.29187052
