   70
C70 / DATE: 7/ 1/2024 / Origin: Program Fullerene / C70 from database
 C            1.62506566        0.07134279        4.54372829
 C            0.81259007       -1.12729538        4.44629007
 C            1.43076570       -2.01013544        3.47470046
 C            2.67185473       -0.02019663        3.54151076
 C            2.58988713       -1.32214861        2.92073114
 C            2.57510129        1.13967444        2.68741509
 C            0.78360792        1.20184812        4.19665523
 C            1.41727972        1.91323323        3.10061104
 C           -0.56153526       -0.72140282        4.23289859
 C           -0.56892873        0.71435752        3.99884412
 C           -1.36625603       -1.52759887        3.44561622
 C            0.62149516       -2.75264930        2.61575526
 C           -0.76759303       -2.63043309        2.70164839
 C            1.19078338       -3.23640398        1.44152190
 C            2.83555106       -1.43593676        1.55608145
 C            2.39082201       -2.59117828        0.93402266
 C            2.79211012        0.98857315        1.32727567
 C            3.02889480       -0.28287388        0.78136362
 C            2.32629193        1.99559827        0.49355347
 C            0.60218514        2.45630699        2.10956310
 C            1.13151754        2.64058744        0.82709164
 C           -1.29541633        1.23216895        2.92996360
 C           -0.78006958        2.33905932        2.25428121
 C           -2.35485259       -0.90620506        2.58257603
 C           -2.27847743        0.45316611        2.30891243
 C           -1.59253339       -2.85416913        1.52304887
 C           -2.61704473       -1.81869403        1.49116339
 C            0.34958177       -3.56809243        0.30163043
 C           -1.00796688       -3.27041145        0.33023408
 C            2.36023844       -2.65735049       -0.50993095
 C            1.12128948       -3.31136565       -0.90567168
 C            3.18109482       -0.39335956       -0.60913117
 C            2.82050316       -1.58548674       -1.26100337
 C            2.77913065        2.01097455       -0.81497403
 C            3.35128978        0.78634698       -1.34014774
 C            1.93156657        2.57744644       -1.84521416
 C            0.30487941        3.14402291       -0.18316853
 C            0.61896527        2.89381434       -1.52060725
 C           -1.59585587        2.98942378        1.34336878
 C           -0.98678385        3.54191357        0.14832573
 C           -2.91738682        0.94965510        1.17132716
 C           -2.80708289        2.31670390        0.92301573
 C           -3.01551301       -1.30326340        0.26482475
 C           -3.28494264        0.06425538        0.14133920
 C           -1.67341341       -3.01921208       -0.86519219
 C           -2.76759927       -2.06145399       -0.87712114
 C            0.47727017       -2.89675499       -2.06985480
 C           -0.91527208       -2.84422780       -2.09616221
 C            2.47488073       -1.57964444       -2.61026166
 C            1.20052812       -2.15666438       -3.00549117
 C            3.15470487        0.80157426       -2.77634527
 C            2.19841393        1.85584678       -3.07733296
 C            2.69968498       -0.40458546       -3.42379828
 C            0.51235213       -1.16524494       -3.81869615
 C            1.08063440        1.25590263       -3.78048815
 C            1.45406795       -0.10241139       -4.11245046
 C           -0.39843220        2.55361171       -2.41681412
 C           -0.20227236        1.49749989       -3.30641978
 C           -2.00741501        3.56443699       -0.88435510
 C           -3.17376943        2.86552502       -0.36558556
 C           -1.69243909        2.99724894       -2.17989686
 C           -3.70095406        0.54862647       -1.10086455
 C           -3.64678419        1.96682451       -1.39106643
 C           -2.79681273        2.13746805       -2.55980081
 C           -2.79875776       -1.43613402       -2.18860381
 C           -1.57677197       -1.81179549       -2.88046262
 C           -0.80243157       -0.84052267       -3.50714549
 C           -1.18127174        0.50413374       -3.42143833
 C           -3.26749450       -0.13855339       -2.30294837
 C           -2.49674958        0.81468373       -3.08244442
