   70
C70 / DATE: 7/ 1/2024 / Origin: Program Fullerene / C70 from database
 C            1.61418131       -0.03416569        4.51883777
 C            0.81871292       -1.21340953        4.23074068
 C            1.58102105       -2.04667230        3.33364220
 C            2.73276244       -0.02169646        3.59071078
 C            2.70877223       -1.26052686        2.85370019
 C            2.67462067        1.20976697        2.84281135
 C            0.79601949        1.12993947        4.23413527
 C            1.54346376        1.98317832        3.33682137
 C           -0.48569412       -0.78123759        3.79127936
 C           -0.50390840        0.67343957        3.79398553
 C           -1.07621063       -1.43826954        2.72156276
 C            0.90725438       -2.82045924        2.39809325
 C           -0.44777570       -2.54679049        2.12845247
 C            1.69806860       -3.32535559        1.37761410
 C            2.95834659       -1.24903729        1.48269643
 C            2.71186268       -2.44645725        0.81815524
 C            2.90635056        1.18993376        1.46927100
 C            2.87136459       -0.03372081        0.77377056
 C            2.61638328        2.36636919        0.79032530
 C            0.84238868        2.75146209        2.41507259
 C            1.56869568        3.21919824        1.32608519
 C           -1.09774868        1.33444159        2.72244638
 C           -0.53275860        2.52852362        2.25864641
 C           -2.06051992       -0.76106873        2.01481074
 C           -1.97930934        0.62873622        1.89867629
 C           -2.85226674       -1.48088150        1.13632277
 C           -1.09479378       -3.19167867        1.05912924
 C           -2.37702869       -2.77864047        0.69370370
 C            1.07673890       -4.04473818        0.29422508
 C           -0.35874710       -3.95849923        0.15205695
 C            2.53418824       -2.44960885       -0.61533029
 C            1.67204594       -3.56989272       -0.94479638
 C            2.61342558       -0.04500919       -0.61206564
 C            2.32706463       -1.24707251       -1.26419187
 C            2.48637627        2.35842396       -0.64822156
 C            2.53223333        1.15417942       -1.33230202
 C            0.87781687        3.84393118        0.21547923
 C            1.47609153        3.34141624       -1.01385330
 C           -1.23213877        3.26075435        1.30241281
 C           -0.49487271        4.00659150        0.29391087
 C           -2.56443522        1.27184945        0.80649094
 C           -2.36331663        2.63557734        0.64037567
 C           -3.43876099       -0.79956857       -0.00305485
 C           -3.07055882        0.51544016       -0.25138491
 C           -2.81857395       -2.95917395       -0.67948391
 C           -3.47684752       -1.73438088       -1.10511640
 C           -0.62634952       -3.84324690       -1.27364428
 C            0.59415080       -3.36052893       -1.89590864
 C           -1.83956457       -3.31795149       -1.68829413
 C            1.58073187       -1.23641415       -2.43863098
 C            0.55639806       -2.17391409       -2.62223940
 C            2.06539492        1.14072857       -2.64617825
 C            1.63399947       -0.11048722       -3.24074195
 C            0.69070356        3.11182554       -2.14278642
 C            1.13991700        2.18073182       -3.07565297
 C           -1.26999189        3.99045477       -0.93021031
 C           -2.46730869        3.20030684       -0.68964525
 C           -0.65389158        3.49527854       -2.14872979
 C           -2.89641079        0.95207594       -1.57297068
 C           -2.63844199        2.29913665       -1.81462001
 C           -1.64597694        2.66008811       -2.81168562
 C           -2.89810181       -1.32583254       -2.36659361
 C           -1.84943327       -2.27567115       -2.70348977
 C           -0.64989182       -1.78410123       -3.21587593
 C           -2.65962477        0.02538403       -2.59648823
 C            0.51616387        0.16947348       -4.11546136
 C            0.19222389        1.58089408       -3.99691711
 C           -1.22558444        1.69658916       -3.71481314
 C           -0.70216400       -0.59019753       -3.92879810
 C           -1.76693125        0.35023716       -3.61627344
