   70
C70 / DATE: 7/ 1/2024 / Origin: Program Fullerene / C70 from database
 C            1.44776060        0.00443423        4.65256362
 C            0.67721802       -1.17835131        4.33345469
 C            1.34333157       -1.88194316        3.24814129
 C            2.61191495        0.01196196        3.78791932
 C            2.51577023       -1.11129738        2.87995007
 C            2.70072764        1.33066480        3.20550823
 C            0.63334439        1.15731513        4.30024509
 C            1.41818674        1.98776815        3.42131119
 C           -0.69072945       -0.75187560        4.12077729
 C           -0.64008451        0.67006375        3.81928663
 C           -1.47530845       -1.54805072        3.31146906
 C            0.54828214       -2.43331256        2.24724853
 C           -0.81204026       -2.56271118        2.50605223
 C            0.97641985       -2.38904056        0.91562858
 C            2.77175119       -0.87930478        1.53671242
 C            2.12376052       -1.65296101        0.57019659
 C            3.26528864        1.46055387        1.94432970
 C            3.41408067        0.30451483        1.15936333
 C            3.01102801        2.66778134        1.30641541
 C            0.80815956        2.59108922        2.32528186
 C            1.67041057        3.21294285        1.42731180
 C           -1.12714282        1.11941974        2.58813885
 C           -0.42055674        2.08882447        1.85662333
 C           -2.41679365       -0.90003894        2.42291387
 C           -2.13973085        0.38252183        1.96315016
 C           -1.70953122       -2.87396989        1.41593778
 C           -2.79987643       -1.91036707        1.46514397
 C            0.16197458       -2.93594777       -0.08658914
 C           -1.18876388       -3.20820942        0.17224152
 C            0.63244289       -2.97740546       -1.39347311
 C            2.53618058       -1.56223162       -0.76477269
 C            1.77262947       -2.16382344       -1.75798893
 C            3.87037994        0.41441556       -0.15127561
 C            3.35295604       -0.50099477       -1.15220449
 C            3.46488156        2.86875818       -0.05172033
 C            3.97232024        1.72406730       -0.77298718
 C            1.21337171        3.53402058        0.09384261
 C            2.35073659        3.41552269       -0.80761979
 C           -0.87638467        2.44161628        0.58068651
 C           -0.01048478        3.04933254       -0.33297052
 C           -2.58804274        0.74869921        0.69306809
 C           -2.07412355        1.90686023        0.10100822
 C           -3.35964898       -1.51668949        0.26241975
 C           -3.36848810       -0.15287783       -0.05551980
 C           -2.10071084       -3.25627713       -0.88322884
 C           -3.30292020       -2.44964373       -0.76746075
 C           -0.30545742       -2.90960775       -2.49984563
 C           -1.64370729       -3.16296223       -2.25908744
 C            1.39002553       -1.36245949       -2.91152108
 C            0.05469241       -1.74848708       -3.29890789
 C            2.95606595        0.28467198       -2.31281701
 C            3.28089263        1.66667726       -2.05022806
 C            2.19559920        2.61971224       -2.01579177
 C            1.74734642       -0.02519573       -2.92487098
 C           -0.15536749        2.76235187       -1.68455507
 C            0.91840726        2.18762057       -2.35535872
 C            0.73484774        0.94574957       -2.98386246
 C           -2.46461148        2.25546261       -1.19002208
 C           -1.42620466        2.52620269       -2.16332001
 C           -3.94333717        0.25835678       -1.25790957
 C           -3.48636811        1.48556739       -1.86772121
 C           -3.72658542       -2.07852678       -2.09930164
 C           -2.63788315       -2.40703731       -3.00606773
 C           -4.10186240       -0.70126732       -2.33806165
 C           -0.89909985       -0.76903527       -3.55277084
 C           -0.56758627        0.58446673       -3.36772516
 C           -1.57570435        1.54025646       -3.21017421
 C           -2.96980424        1.15060306       -3.18961794
 C           -2.23147904       -1.17440235       -3.65889095
 C           -3.30676552       -0.22454183       -3.45810130
