   70
C70 / DATE: 7/ 1/2024 / Origin: Program Fullerene / C70 from database
 C            1.31802420       -0.13243044        4.27858510
 C            2.57983860       -0.37780069        3.62018488
 C            2.49402297       -1.66386911        2.94583918
 C            0.47085427       -1.29475225        4.05978555
 C            1.14550832       -2.16274859        3.11199863
 C           -0.86055771       -0.81371762        3.72853338
 C            0.55218723        1.04019608        3.90034066
 C           -0.84040334        0.63183027        3.86894474
 C            1.03214726        1.90490396        2.91233403
 C            3.04960192        0.58699735        2.65041699
 C            2.35541800        1.77602275        2.44529499
 C            3.00583133       -1.49496829        1.59909015
 C            3.52091653       -0.14455877        1.48675886
 C            2.28888625       -2.01346974        0.53196717
 C            0.44272516       -2.58127148        1.98966406
 C            1.10232746       -2.71850379        0.76460111
 C           -1.52959288       -1.38385740        2.64618064
 C           -0.94314045       -2.46993518        1.99691632
 C           -2.53216468       -0.65729472        1.99513079
 C           -1.73470870        1.38076225        3.12700829
 C           -2.70435298        0.69448524        2.29001660
 C            0.12386002        2.76574895        2.27410535
 C           -1.24445920        2.52289622        2.37407187
 C            0.54900452        3.59690573        1.24404749
 C            2.79182829        2.55771443        1.38248765
 C            1.94526495        3.61444438        0.88174629
 C            3.48428797        0.49334610        0.24854442
 C            3.39784736        1.88767559        0.24059610
 C            2.54772085       -1.51425640       -0.73862832
 C            3.08594950       -0.22877502       -0.88369853
 C            2.00504517       -2.17813272       -1.83175438
 C            0.40177362       -3.26184938       -0.31743947
 C            0.89539487       -3.08894772       -1.61191263
 C           -1.65597635       -3.12586157        1.00774133
 C           -0.92560972       -3.64816046       -0.13335096
 C           -3.14864761       -1.19574550        0.86189350
 C           -2.86983696       -2.51203180        0.50617340
 C           -3.74940764       -0.34507738       -0.06958951
 C           -3.07963127        1.61099093        1.22955701
 C           -2.06370365        2.64895353        1.17856824
 C           -3.56906425        1.09186161        0.04458963
 C           -0.23546124        3.64806288        0.01789094
 C           -1.44463499        2.96410265       -0.03030838
 C            2.03227097        3.61401630       -0.56897520
 C            2.98427823        2.59125034       -0.96348883
 C            0.68079723        3.55295959       -1.10045271
 C            2.97498548        0.43402984       -2.10517249
 C            2.72966108        1.86294831       -2.11408707
 C            1.75975245       -1.45906596       -3.06932522
 C            2.17342898       -0.14022206       -3.17341981
 C           -0.02253513       -2.94925038       -2.73582876
 C            0.44704738       -1.84754884       -3.55969326
 C           -1.83691558       -3.65948906       -1.26432260
 C           -3.03684183       -2.93654899       -0.87382488
 C           -1.38472889       -3.12941409       -2.53542761
 C           -3.70674732       -0.66846809       -1.48869536
 C           -3.31127338       -1.93817889       -1.88944910
 C           -2.31862470       -2.08942358       -2.94276130
 C           -2.99917968        1.55404606       -1.20820478
 C           -1.80112744        2.26865168       -1.19042327
 C           -3.20965037        0.50536597       -2.19165748
 C            0.40198778        2.66207228       -2.12880752
 C            1.46622368        2.06343393       -2.80495060
 C            1.23380719        0.88122833       -3.61650396
 C           -0.87878915        2.11557578       -2.23546305
 C           -0.44826035       -0.87304544       -3.98813655
 C           -1.85332840       -0.96832638       -3.62247720
 C           -2.30078158        0.35945359       -3.22755211
 C           -0.07125980        0.53033167       -3.92994274
 C           -1.15910984        1.25373324       -3.29587968
