   70
C70 / DATE: 7/ 1/2024 / Origin: Program Fullerene / C70 from database
 C            1.30905533       -0.00565223        4.32569945
 C            2.55495485       -0.33702033        3.67496040
 C            2.50780350       -1.74282939        3.30889268
 C            0.47833798       -1.19896093        4.33887018
 C            1.16683221       -2.22984020        3.58172419
 C           -0.86285254       -0.81457138        3.93829617
 C            0.51515831        1.07631826        3.78133434
 C           -0.84539322        0.60582844        3.62936337
 C            1.02916142        1.89140854        2.77781544
 C            2.93712954        0.41208936        2.49505453
 C            2.21568436        1.53932801        2.11178466
 C            3.03529343       -1.87198330        1.96316986
 C            3.31144064       -0.53467278        1.46319657
 C            2.45392799       -2.79580467        1.11194378
 C            0.47830916       -2.91568295        2.58252249
 C            1.18357285       -3.40389740        1.48402882
 C           -1.58203394       -1.66937094        3.12104345
 C           -0.90981244       -2.81087980        2.51535795
 C           -2.46915009       -1.10505265        2.12134298
 C           -1.57995265        1.10021647        2.55442438
 C           -2.36551658        0.23624367        1.78025818
 C            0.13362695        2.73848044        2.12589340
 C           -1.20772652        2.33282601        2.01891588
 C            0.66782106        3.65160800        1.22257409
 C            2.42989171        2.03154222        0.82335302
 C            1.84897028        3.25114633        0.48768152
 C            3.01663877       -0.20763318        0.14118013
 C            2.82208205        1.13681200       -0.18083642
 C            2.39172628       -2.49908189       -0.30603119
 C            2.57881571       -1.19712821       -0.74896719
 C            0.48214450       -3.73609875        0.25276796
 C            1.30128047       -3.27222078       -0.86093723
 C           -1.60630434       -3.11774091        1.27565896
 C           -2.61263832       -2.08536037        1.06474672
 C           -0.90466681       -3.61172327        0.17755458
 C           -2.86891178       -1.66586150       -0.23505744
 C           -2.80293171        0.64167513        0.51759532
 C           -2.86228028       -0.29195008       -0.52819715
 C           -2.04770693        2.89723937        1.06424785
 C           -2.82006528        2.00344925        0.22292947
 C           -0.19845363        4.38402113        0.32264156
 C           -1.58824262        3.99968175        0.24341011
 C            1.65188204        3.61258813       -0.90610544
 C            0.36991175        4.28899388       -1.01188135
 C            2.69584457        1.48515486       -1.52072061
 C            2.00867352        2.70913569       -1.89351113
 C            2.06239072       -0.83081857       -1.99228356
 C            2.31217565        0.45443877       -2.46899682
 C            0.66730148       -2.82570360       -2.01324946
 C            1.10169189       -1.63680995       -2.62113878
 C           -1.48936321       -3.49318398       -1.08125199
 C           -2.61532161       -2.58779724       -1.24269393
 C           -0.62945661       -3.28289402       -2.23100873
 C           -2.64157075       -2.16362073       -2.62498659
 C           -1.44782755       -2.69144855       -3.26955251
 C           -2.73113640        0.15491104       -1.85282508
 C           -2.69924023       -0.74870177       -2.90713791
 C           -2.62936050        2.42662595       -1.15179173
 C           -1.88326203        3.66950839       -1.14100553
 C           -0.64522736        3.73298133       -1.89087527
 C           -2.31207049        1.46002314       -2.09225044
 C            1.03638216        2.36266102       -2.91700940
 C            1.40991477        1.05769985       -3.43618413
 C           -0.31067689        2.66364220       -2.71546269
 C           -1.27296798        1.69285530       -3.00267455
 C            0.44874760       -1.15759916       -3.75951133
 C           -0.88134865       -1.63665791       -4.07888908
 C           -1.77621393       -0.49319461       -3.99393462
 C            0.43499033        0.26890220       -4.02121350
 C           -0.94988194        0.69941188       -3.92406165
