   70
C70 / DATE: 7/ 1/2024 / Origin: Program Fullerene / C70 from database
 C            1.23566939       -0.17383711        4.46530532
 C            2.51698652       -0.42207809        3.83342709
 C            2.43954021       -1.70739771        3.15812391
 C            0.40121901       -1.34455505        4.24999621
 C            1.10174716       -2.23750080        3.35187196
 C           -0.91781906       -0.88882355        3.86179288
 C            0.47031505        0.99881702        4.07466964
 C           -0.87108974        0.56076041        3.73445897
 C            1.06919853        1.98750637        3.30825599
 C            3.02868721        0.54740619        2.88315612
 C            2.40979881        1.78509177        2.76935012
 C            2.92196124       -1.53061073        1.79950541
 C            3.39819561       -0.16500334        1.67056135
 C            2.19335615       -2.08910548        0.75460997
 C            0.41717577       -2.72686727        2.24636520
 C            1.12011899       -2.92377188        1.05645777
 C           -1.62627173       -1.60809186        2.90466085
 C           -0.97902713       -2.63763443        2.21070647
 C           -2.70858878       -0.96683935        2.31026545
 C           -1.56510850        1.15961180        2.68206546
 C           -2.67110278        0.48153276        2.18912449
 C            0.28131409        2.66142628        2.28994150
 C           -0.92919630        2.11375037        1.87656138
 C            2.47202183        2.47641050        1.49700735
 C            1.20592062        3.16056055        1.29423636
 C            3.26883302        0.47071552        0.44010023
 C            3.06630631        1.85640325        0.40334163
 C            2.27335060       -1.51333665       -0.51502311
 C            2.95462167       -0.30496676       -0.67957526
 C            1.52391716       -2.05009443       -1.57013701
 C            0.50992016       -3.61984728        0.02447631
 C            0.72931942       -3.17344784       -1.34044432
 C           -1.66270003       -3.31515338        1.20380579
 C           -0.89138435       -3.96757632        0.16161585
 C           -3.30417282       -1.50649961        1.10005120
 C           -2.81050192       -2.68481208        0.57086946
 C           -3.21083558        0.83451902        0.89583189
 C           -3.59126538       -0.39286802        0.21315543
 C           -1.38213789        2.36215670        0.57143833
 C           -2.61919986        1.84543431        0.15457077
 C            0.76464649        3.34365319       -0.00864453
 C           -0.57561152        3.09919598       -0.31775701
 C            2.90650097        2.48002900       -0.82844012
 C            1.71962963        3.29795563       -1.02595047
 C            3.03346973        0.26596399       -1.94128475
 C            3.11416680        1.70795991       -2.03595395
 C            1.35298426       -1.32180626       -2.75154517
 C            2.13460023       -0.19668692       -2.98085589
 C            0.16976349       -1.45258620       -3.47343660
 C           -0.52247331       -3.32511056       -2.06582182
 C           -1.54354985       -3.70917746       -1.10959714
 C           -2.64840979       -2.79747215       -0.86785668
 C           -0.84915196       -2.38505683       -3.02908934
 C           -3.35141593       -0.49728653       -1.15667443
 C           -2.78033244       -1.66759268       -1.67594646
 C           -2.08695588       -1.63250869       -2.88744908
 C           -2.99061482        1.92458066       -1.18133714
 C           -3.29853689        0.69041179       -1.88773357
 C           -0.99854737        3.33095559       -1.62453285
 C           -2.25760590        2.78514717       -2.07627346
 C            1.30399211        3.16082654       -2.41271212
 C            2.14642303        2.15133238       -3.02545388
 C            1.52169085        0.97264733       -3.59652515
 C           -0.04929555        3.16484309       -2.70992960
 C           -0.50504426       -0.25327943       -3.94384987
 C           -1.91541955       -0.37749756       -3.59555388
 C           -2.61759693        0.73490702       -3.16950034
 C           -2.00789079        2.04400637       -3.30404798
 C            0.14853745        0.97379644       -3.83290965
 C           -0.58704501        2.13646539       -3.58989151
