   70
C70 / DATE: 7/ 1/2024 / Origin: Program Fullerene / C70 from database
 C            1.39899470       -0.15462187        4.09780150
 C            2.42691497       -0.36186794        3.09557115
 C            2.23423656       -1.69091251        2.53174351
 C            0.52479004       -1.31501600        4.08760000
 C            0.99542247       -2.22785641        3.05742088
 C           -0.84555383       -0.84160161        4.02336638
 C            0.57139563        1.03121187        4.01135301
 C           -0.80115098        0.59743084        3.81158816
 C            1.03776632        2.11026209        3.27857091
 C            2.79013528        0.68878919        2.25290501
 C            2.20759140        1.94667203        2.42106785
 C            3.40661231        0.38606378        1.04131687
 C            2.54950234       -1.90354202        1.19999710
 C            3.38503422       -0.98630089        0.56836308
 C            1.74395615       -2.74117281        0.42805157
 C            0.06838865       -2.79221446        2.18515268
 C            0.43878807       -3.05217311        0.85479098
 C           -1.76197637       -1.59438440        3.30893337
 C           -1.28037262       -2.72918052        2.53781426
 C           -2.72695081       -0.90783089        2.47168906
 C           -1.55703098        1.17729195        2.79079554
 C           -2.46945934        0.39855779        2.07117483
 C            0.08287468        2.92900144        2.55339097
 C           -1.20317103        2.44169109        2.31354838
 C            2.02481042        2.81045909        1.26251829
 C            0.81562137        3.58462294        1.48165438
 C            3.19198589        1.24763707       -0.11333841
 C            2.31344954        2.31693837       -0.00728435
 C            3.45391991       -0.95152552       -0.88121973
 C            3.15806101        0.40892915       -1.29741292
 C            2.14124570       -3.00636732       -0.87948717
 C            2.90952113       -2.00226519       -1.59688262
 C            1.19180444       -3.57174587       -1.80863757
 C           -0.52173406       -3.52309671       -0.06187184
 C           -0.18968429       -3.65757530       -1.40331915
 C           -2.29247256       -3.01600566        1.54764815
 C           -3.18012005       -1.86452551        1.47919766
 C           -1.86887526       -3.31989220        0.20361669
 C           -3.25374411       -1.44544268        0.09028390
 C           -2.62651240       -2.47772217       -0.70730215
 C           -2.88447423        0.81398113        0.80534175
 C           -3.00478680       -0.11767902       -0.22511398
 C           -1.96014322        3.01567778        1.29633639
 C           -2.80559179        2.15797736        0.48536052
 C            0.11556051        4.06319945        0.38695498
 C           -1.33296764        3.98329685        0.41311068
 C            1.48459022        2.64267235       -1.08502884
 C            0.54708347        3.66898704       -0.94331740
 C            2.18380856        0.63625219       -2.26374286
 C            1.46068886        1.83566903       -2.23066243
 C            2.20056466       -1.71525572       -2.82969715
 C            1.25171743       -2.79523282       -3.03714060
 C            1.80150750       -0.41057032       -3.11671208
 C           -0.99419781       -2.93820502       -2.37959036
 C           -2.03770910       -2.13170266       -1.91819325
 C           -0.10719133       -2.46131843       -3.42903404
 C           -2.55509731        0.20728054       -1.50741427
 C           -2.14430666       -0.81550294       -2.38212771
 C           -2.64133782        2.54146003       -0.90575064
 C           -1.78903568        3.71829647       -0.93918944
 C           -0.62430067        3.70037853       -1.80497947
 C           -2.45240496        1.55762458       -1.87476744
 C            0.54537508        2.12219318       -3.23984714
 C           -0.65321124        2.86387880       -2.90680709
 C           -1.74914507        1.91520974       -3.02222381
 C            0.73433385       -0.23994214       -3.99442672
 C           -0.34403043       -1.21568909       -3.98878893
 C           -1.53879426       -0.49608586       -3.59449777
 C            0.12240791        1.06291426       -4.12939583
 C           -1.31292654        0.88951558       -3.94082528
