   70
C70 / DATE: 7/ 1/2024 / Origin: Program Fullerene / C70 from database
 C            1.34018807       -0.10240200        4.22857193
 C            2.60085633       -0.37707546        3.57860344
 C            2.51606698       -1.69827857        2.97842641
 C            0.48915337       -1.27206965        4.06155023
 C            1.15786223       -2.17840489        3.15436353
 C           -0.83589132       -0.80128466        3.71410261
 C            0.57455547        1.05220431        3.79858589
 C           -0.81820560        0.64654706        3.82856422
 C            1.03466709        1.84072280        2.73882856
 C            3.06035111        0.53506040        2.55359553
 C            2.35954418        1.71081688        2.29286073
 C            3.04739135       -1.61089868        1.62643667
 C            3.51910251       -0.25493431        1.42310718
 C            2.35581846       -2.23040165        0.59804325
 C            0.47759953       -2.63624995        2.03400281
 C            1.22033819       -2.97917055        0.91115813
 C           -1.51114419       -1.38023104        2.64216369
 C           -0.89279494       -2.39242066        1.89061351
 C           -2.62015549       -0.71063417        2.12277757
 C           -1.73346902        1.37629786        3.09255607
 C           -2.73019177        0.66692259        2.30654873
 C            0.10815456        2.58887836        1.99724400
 C           -1.25337099        2.47920102        2.28024235
 C            0.51577552        3.31119940        0.87365916
 C            2.77487452        2.43499547        1.18237862
 C            1.86516925        3.36927579        0.55481286
 C            3.44342629        0.32191733        0.15729143
 C            3.45247486        1.71183815        0.11702244
 C            2.51554516       -1.74444330       -0.69780837
 C            2.84515492       -0.39836797       -0.89168653
 C            1.98436434       -2.47866205       -1.75081888
 C            0.59851752       -3.70826340       -0.08782188
 C            1.10087339       -3.58869740       -1.44253016
 C           -1.56891924       -2.96153089        0.80452032
 C           -0.85267783       -3.70091425       -0.14263514
 C           -3.33418553       -1.28695961        1.08081569
 C           -2.85266548       -2.52183681        0.49545819
 C           -3.78593855       -0.43251231       -0.00743459
 C           -3.06357603        1.50014311        1.16232913
 C           -2.22251079        2.68312167        1.21837810
 C           -3.32807492        0.87938341       -0.05612827
 C           -0.42631436        3.70994737       -0.07724255
 C           -1.80548416        3.26916570        0.03835984
 C           -0.08256081        3.69071911       -1.49090129
 C            2.26399454        3.48475776       -0.83859994
 C            3.17922953        2.39126695       -1.12606295
 C            1.23910207        3.48589131       -1.86663415
 C            2.43302062        0.25375234       -2.06861431
 C            2.62350737        1.62591956       -2.21712191
 C            1.56426246        2.42446685       -2.80764291
 C            1.42589215       -1.77392690       -2.88662995
 C            1.58959106       -0.39914087       -2.97174653
 C           -0.03863428       -3.52484457       -2.34016101
 C           -1.24274381       -3.66343788       -1.54751116
 C            0.11752969       -2.34797963       -3.17346211
 C           -3.30265741       -2.54755513       -0.88574021
 C           -3.80656816       -1.22435836       -1.21432755
 C           -2.36365475       -2.93887623       -1.91782693
 C           -0.96990829       -1.49931560       -3.38316744
 C           -3.07774147       -0.73984115       -2.36292640
 C           -2.21841377       -1.81547325       -2.83753451
 C           -2.74229613        1.37713303       -1.23117264
 C           -2.17765596        2.65380692       -1.22386625
 C           -1.15184686        2.99843855       -2.19460481
 C           -2.58561752        0.55991979       -2.36288230
 C            0.54639373        1.77307048       -3.48892801
 C            0.63410456        0.33369041       -3.67113499
 C           -0.72045805       -0.18317576       -3.76526870
 C           -0.84386124        2.09509578       -3.19995901
 C           -1.61426422        0.86900202       -3.30943848
