   70
C70 / DATE: 7/ 1/2024 / Origin: Program Fullerene / C70 from database
 C            1.44101233       -0.14423166        4.27564654
 C            2.62749620       -0.30771564        3.44971277
 C            2.41403322       -1.48145120        2.62093780
 C            0.60147026       -1.31255628        4.08237710
 C            1.31434760       -2.22633133        3.21276935
 C           -0.71864907       -0.86264720        3.67333530
 C            0.61339526        1.03587105        4.09235793
 C           -0.69296643        0.58809578        3.63926365
 C            1.18144569        2.16126324        3.51377690
 C            3.19759150        0.81851713        2.87914413
 C            2.58213487        2.11217181        3.13169195
 C            3.55679635        0.78387531        1.47231681
 C            2.50424949       -1.37822156        1.22876027
 C            3.04945254       -0.22897135        0.65217850
 C            1.83635893       -2.30915263        0.42932421
 C            0.56615730       -3.04386333        2.38800409
 C            1.04809786       -3.28063721        1.04494927
 C           -1.37392089       -1.55311632        2.65206954
 C           -0.86254225       -2.78814357        2.25967361
 C           -2.21763741       -0.85255777        1.77977798
 C           -1.32021136        1.22836815        2.58205517
 C           -2.31527074        0.54222433        1.89846391
 C            0.46273354        2.85522965        2.45701599
 C           -0.72564622        2.33526920        1.96851632
 C            2.74677114        2.92044444        1.93813029
 C            3.55043850        2.15924530        1.00042187
 C            1.43253976        3.37149634        1.50777678
 C            3.34133917        2.38406857       -0.34679050
 C            2.88534776        0.01104443       -0.71492653
 C            3.29280041        1.23920573       -1.23168571
 C            1.68639680       -2.07177487       -0.94073611
 C            2.07533597       -0.84102020       -1.47689574
 C            0.91374738       -2.94394692       -1.71136557
 C           -0.07162722       -3.84433583        0.32451344
 C           -1.27517145       -3.36346888        0.99376456
 C           -0.03290973       -3.83535627       -1.05718196
 C           -2.78382423       -1.51195514        0.67550260
 C           -2.26281169       -2.73566455        0.24283421
 C           -3.71438804       -0.85240505       -0.12578674
 C           -3.07101897        1.26781581        0.99010340
 C           -3.91597350        0.56869306        0.05081115
 C           -1.12775942        2.69528343        0.68526289
 C           -2.41647606        2.35763631        0.29062696
 C            1.14000965        3.34406527        0.14308847
 C            2.21563458        3.21821700       -0.73400631
 C           -0.15282950        2.98404137       -0.27843081
 C            2.70337738        1.72423729       -2.45861232
 C            1.97097203        2.94201534       -2.12933010
 C            1.55669727       -0.42591729       -2.71600612
 C            1.79373206        0.86389401       -3.17705915
 C            0.28819617       -2.44928416       -2.92353629
 C            0.49459175       -1.12613143       -3.28467367
 C           -1.29287237       -3.73851935       -1.76780043
 C           -2.41767738       -3.12112439       -1.08903562
 C           -1.05576664       -2.99872562       -2.99177722
 C           -3.73714276       -1.11575153       -1.55390095
 C           -3.05827719       -2.22507292       -2.03630991
 C           -2.17391968       -2.09274980       -3.18682178
 C           -3.75679442        1.20861094       -1.24464464
 C           -2.71082137        2.21156381       -1.11828494
 C           -3.61484838        0.16258565       -2.23975111
 C           -0.42720296        2.75974018       -1.64047848
 C            0.60901581        2.75078772       -2.57127081
 C            0.65506528        1.68112193       -3.54685899
 C           -1.65957724        2.22320706       -2.02464084
 C           -0.53748913       -0.41497863       -3.90238712
 C           -1.91814312       -0.83563556       -3.71690633
 C           -2.66537278        0.31893114       -3.24063337
 C           -0.52716328        1.03805916       -3.86480994
 C           -1.74407893        1.44651853       -3.18361956
