   70
C70 / DATE: 7/ 1/2024 / Origin: Program Fullerene / C70 from database
 C            1.25543878       -0.18894284        4.57847976
 C            2.55996296       -0.40438137        3.98429546
 C            2.50204167       -1.64913009        3.23151749
 C            0.42914417       -1.34152487        4.25395396
 C            1.13115579       -2.12657449        3.26712174
 C           -0.88857577       -0.85884222        3.91672187
 C            0.50342958        1.00524847        4.23116776
 C           -0.86004750        0.59393493        3.95826364
 C            1.08338795        1.98526222        3.43785277
 C            3.11543581        0.61139340        3.10873937
 C            2.43632248        1.81324445        2.92324841
 C            3.11940569       -1.41386271        1.93726942
 C            3.68386861       -0.07648154        1.96109061
 C            2.46153077       -1.85056846        0.78970001
 C            0.49782325       -2.41024107        2.06186535
 C            1.28632723       -2.58937019        0.92876283
 C           -1.58966763       -1.45657291        2.87500936
 C           -0.88271196       -2.19649772        1.91342506
 C           -2.75723846       -0.81077059        2.49406290
 C           -1.62711596        1.27719068        3.01869275
 C           -2.79556528        0.63896046        2.61971355
 C            0.28592030        2.62036192        2.40098213
 C           -0.99082661        2.14568446        2.11728338
 C            2.50589790        2.48391615        1.63588821
 C            1.17311939        2.96477182        1.30356266
 C            3.82649523        0.60087792        0.75987179
 C            3.29763643        1.95124537        0.62747132
 C            2.76033812       -1.25829634       -0.44222736
 C            3.52836097       -0.10219536       -0.47726445
 C            2.03296513       -1.62233426       -1.57586194
 C            0.70906971       -3.14681589       -0.19715143
 C            1.19694264       -2.73363822       -1.49777462
 C           -1.49043289       -2.52797965        0.69140015
 C           -0.73814893       -3.20627018       -0.26923986
 C           -3.39836603       -1.16346257        1.24771530
 C           -2.73027343       -1.97743256        0.34132737
 C           -3.53431936        1.16320581        1.49437408
 C           -4.06455305        0.03100288        0.75752947
 C           -1.49734620        2.31623365        0.82277202
 C           -2.82634144        2.00327998        0.55694957
 C            0.71820925        2.85685940       -0.00858506
 C           -0.62355613        2.53428306       -0.24651813
 C            2.87741700        2.11614641       -0.75214696
 C            3.22598053        0.90158419       -1.47230381
 C            1.65621809        2.72240785       -1.03605605
 C            1.92543567       -0.73959327       -2.66155421
 C            2.44952609        0.55994746       -2.57182298
 C            1.10702847       -1.08233682       -3.74224958
 C            0.10804775       -2.89548812       -2.44238177
 C           -1.10565247       -3.13633786       -1.67398222
 C            0.07018031       -2.08557662       -3.56735096
 C           -3.12368312       -1.92748177       -0.99785859
 C           -2.28701475       -2.50890702       -2.03347744
 C           -3.96726602        0.34199676       -0.65396152
 C           -3.19988722        1.57334436       -0.78016130
 C           -3.69501673       -0.69668755       -1.52879040
 C           -1.08341157        2.38823379       -1.55825319
 C           -2.26759723        1.68945463       -1.80570745
 C            1.20930430        2.64646545       -2.34909351
 C            1.77736098        1.60987972       -3.19197583
 C           -0.21575261        2.65273558       -2.60846002
 C            0.54823542       -0.03873743       -4.58231045
 C            0.82985663        1.33991865       -4.25075918
 C           -0.42353769        1.98060602       -3.87839365
 C           -1.19249188       -1.49902283       -3.99484939
 C           -2.31137228       -1.61128170       -3.17854790
 C           -2.99590381       -0.39839263       -2.76197582
 C           -2.35336118        0.82873729       -2.90655559
 C           -0.89493340       -0.20233771       -4.58029263
 C           -1.47285248        0.98595226       -3.97218628
