   70
C70 / DATE: 7/ 1/2024 / Origin: Program Fullerene / C70 from database
 C            1.44103839       -0.29511060        5.07561624
 C            0.58108006       -1.45760848        4.96015521
 C            1.17009600       -2.34694830        3.97583714
 C            2.55450733       -0.47379857        4.15957379
 C            2.35457652       -1.71101885        3.43512185
 C            2.68241666        0.74351177        3.38753560
 C            0.68879037        0.86056541        4.61861438
 C            1.51694679        1.57322932        3.67062436
 C           -0.69544451       -1.01510440        4.42651038
 C           -0.60925711        0.40874610        4.16829844
 C            0.12404717       -2.71992366        3.04747086
 C           -1.03341414       -1.88485140        3.31390755
 C            0.45878381       -2.91729863        1.71799560
 C            2.51651058       -1.69524632        2.05332493
 C            1.73051740       -2.54495069        1.26754376
 C            3.10620887        0.65542715        2.06490660
 C            3.15010999       -0.60453598        1.45099925
 C            2.90043618        1.78215152        1.27479469
 C            0.90728724        2.21943380        2.59857089
 C            1.74164711        2.60892502        1.56130121
 C           -1.07853961        0.87230131        2.94601992
 C           -0.43525537        1.93833342        2.30771924
 C           -1.69451022       -1.33498050        2.21641432
 C           -1.90829032        0.04473786        2.19015995
 C           -0.58069007       -2.91693990        0.79998219
 C           -1.63121826       -2.01633734        0.99766569
 C           -0.29569048       -3.37483071       -0.47298006
 C            2.01500631       -2.67019704       -0.09567950
 C            1.08811897       -3.32386298       -0.90847370
 C            3.47007301       -0.69478941        0.09960298
 C            2.94881260       -1.80911578       -0.67586164
 C            3.04777802        1.69987204       -0.16649061
 C            3.40294117        0.49330311       -0.73838938
 C            1.16635806        3.02274874        0.30086648
 C            1.98389463        2.48487648       -0.76751722
 C           -1.01201980        2.42854743        1.13209960
 C           -0.20875393        3.00047177        0.13780464
 C           -2.54560090        0.59540056        1.08531288
 C           -2.25896979        1.92267520        0.76414390
 C           -2.30728230       -1.47259846       -0.09862329
 C           -2.98184929       -0.26671503        0.07857831
 C           -1.12868818       -2.95777144       -1.58064605
 C           -2.02468452       -1.91527464       -1.39541798
 C            1.08641623       -3.08250861       -2.33943797
 C           -0.29817919       -2.94459614       -2.76312241
 C            2.76329194       -1.33567422       -2.04243478
 C            2.81297522        0.11356968       -2.00933561
 C            1.83157197       -1.95365113       -2.86038557
 C            1.33806495        2.03421116       -1.91439196
 C            1.75050719        0.84716692       -2.53892656
 C           -0.70772228        3.07033607       -1.16215361
 C            0.08241728        2.56463387       -2.20931252
 C           -2.91097559        2.50127894       -0.31779625
 C           -2.08832232        3.17075797       -1.30474431
 C           -3.72216525        0.25505180       -0.97509980
 C           -3.87344344        1.69441027       -1.04062140
 C           -2.39641439       -1.12878012       -2.49175044
 C           -3.44002784       -0.22031671       -2.31862462
 C           -0.38579790       -1.79450718       -3.63519798
 C            0.91113613       -1.13360213       -3.63238118
 C            0.94770496        0.25911776       -3.52536986
 C           -1.51636013       -0.98888429       -3.58093145
 C           -0.48104336        2.24479812       -3.43830582
 C           -0.14247811        0.96737002       -4.02888030
 C           -1.39425892        0.25056139       -4.19827441
 C           -2.70446286        2.98999951       -2.60389925
 C           -3.83663175        2.09423306       -2.43516619
 C           -3.57635986        0.90570736       -3.22712847
 C           -1.89344441        2.47436961       -3.68180013
 C           -2.47382276        1.20949811       -4.10952058
