   70
C70 / DATE: 7/ 1/2024 / Origin: Program Fullerene / C70 from database
 C            1.12750989        0.06697934        4.59947325
 C            2.41553973       -0.12690674        3.97209821
 C            2.50377230       -1.53360853        3.64837089
 C            0.32330834       -1.12315236        4.33672668
 C            1.14656586       -2.04252645        3.59071689
 C           -0.92068180       -0.67497226        3.75001814
 C            0.33216439        1.19635654        4.17639760
 C           -1.03628566        0.72054465        4.11835278
 C            0.78864443        2.00128946        3.13319048
 C            2.70598575        0.60846859        2.75308182
 C            1.75363909        1.49137450        2.25725860
 C            3.30138527       -1.64559500        2.44952973
 C            3.35718995       -0.31405748        1.84638994
 C            3.01996513       -2.71128334        1.61435453
 C            0.69339292       -2.54799360        2.37481862
 C            1.63957990       -3.19016178        1.58076451
 C           -1.23473552       -1.04596971        2.44385689
 C           -0.44437317       -1.98942049        1.76468807
 C           -2.14275637       -0.25734472        1.72776480
 C           -1.94689061        1.50373644        3.43518436
 C           -2.63073630        0.91904127        2.29135313
 C           -0.08767993        2.96889356        2.66889687
 C           -1.49301343        2.81467029        3.01183582
 C           -0.02699731        3.36441403        1.27417617
 C            1.57414870        1.61231038        0.87111429
 C            0.71529356        2.59367903        0.37537161
 C            3.15639641       -0.18854472        0.47149536
 C            2.20767337        0.72626705       -0.01266937
 C            3.45650845       -2.59766735        0.24438396
 C            3.52749575       -1.26527374       -0.32484505
 C            1.31754594       -3.51968363        0.20860885
 C            2.52826286       -3.36173943       -0.56158673
 C           -0.74876992       -2.29715548        0.43102725
 C            0.13931074       -3.04757869       -0.35022133
 C           -2.34484032       -0.49730789        0.37175241
 C           -1.83233703       -1.66567064       -0.18345618
 C           -2.90151964        0.49536876       -0.45218618
 C           -3.01059607        2.01209006        1.41648770
 C           -2.27176450        3.18680217        1.85295234
 C           -1.36351926        3.80470044        0.90667771
 C           -3.10300615        1.78948557        0.04821829
 C           -1.71673888        3.74095865       -0.42446252
 C           -2.82892709        2.87658426       -0.77682629
 C            0.37920900        2.61347271       -0.98158397
 C           -0.68433088        3.42277088       -1.38615596
 C            1.84893748        0.72116524       -1.37418786
 C            0.86893329        1.61582760       -1.83945303
 C            3.01645638       -1.36002722       -1.66976844
 C            2.41582382       -2.67909131       -1.82691954
 C            2.34544772       -0.27896887       -2.22602256
 C            0.04428135       -2.98329869       -1.74405589
 C            1.20500534       -2.73165446       -2.49979343
 C           -2.17818643       -2.01138441       -1.48306585
 C           -1.21132781       -2.73112730       -2.29229425
 C           -3.02790337        0.26366866       -1.82904967
 C           -2.82593201       -1.02158338       -2.32476689
 C           -2.73591332        2.67112387       -2.20120951
 C           -1.40051275        3.10412363       -2.59929665
 C           -2.91662053        1.33286513       -2.71880944
 C            0.34337446        1.48203446       -3.13953656
 C           -0.86902293        2.08014637       -3.45988681
 C           -1.98748257        1.22743539       -3.82585422
 C            1.67850780       -0.54353791       -3.41544098
 C            1.11843863       -1.87392986       -3.58566247
 C            0.71810134        0.40182093       -3.92318403
 C           -1.32242596       -2.24824701       -3.65703108
 C           -2.30671657       -1.18005348       -3.67605008
 C           -1.71108677       -0.02932218       -4.33717801
 C           -0.12787314       -1.76006357       -4.30520796
 C           -0.32229133       -0.35456621       -4.60966973
