   70
C70 / DATE: 7/ 1/2024 / Origin: Program Fullerene / C70 from database
 C            1.19016817       -0.05282272        5.02174610
 C            0.45373453       -1.22945942        4.59689277
 C            1.40115671       -2.13651232        3.99250919
 C            2.50573486       -0.11192509        4.40483388
 C            2.66745369       -1.43151644        3.84565064
 C            2.63153607        1.02876419        3.52058721
 C            0.50459087        1.11006509        4.48799742
 C            1.45588739        1.86829794        3.70477580
 C           -0.67915092       -0.78690761        3.80318177
 C           -0.70182647        0.66336223        3.82381968
 C           -0.98098955       -1.42657591        2.60287700
 C            1.07327979       -2.70463700        2.70183701
 C           -0.16680914       -2.46162826        2.12655666
 C            3.06921401       -1.54877221        2.45716331
 C            2.23962535       -2.57856766        1.85502771
 C            3.14344435        0.87273302        2.22949346
 C            3.37231985       -0.41344123        1.70538427
 C            2.99606106        1.95803979        1.36614483
 C            0.98365850        2.57395043        2.60488357
 C            1.90518621        2.88597754        1.61056388
 C           -1.08580465        1.32369310        2.66332389
 C           -0.36670248        2.45121541        2.25609033
 C           -1.80917317       -0.76143500        1.69365431
 C           -1.85486303        0.63467071        1.72150047
 C           -2.22766371       -1.44055019        0.54895270
 C           -0.32940633       -2.84357416        0.80458762
 C           -1.56480507       -2.62498272        0.21883211
 C            2.04592103       -2.55898405        0.47659527
 C            0.79169906       -2.90467433       -0.03045431
 C            3.50800595       -0.59268050        0.32921997
 C            2.86932438       -1.74373482       -0.29367129
 C            3.11557448        1.78579611       -0.07051029
 C            3.37867249        0.53090359       -0.58036633
 C            1.43907367        3.38110993        0.32877576
 C            2.10897786        2.61717114       -0.70988702
 C           -0.84706696        3.17483534        1.17203224
 C            0.09355631        3.67048328        0.17674427
 C           -2.37735420        1.33478597        0.63415400
 C           -2.00250131        2.66479954        0.45358210
 C           -2.96305336       -0.75536649       -0.42453405
 C           -2.97366910        0.64138814       -0.42207382
 C           -3.44152939       -1.44935009       -1.53662384
 C           -1.78150466       -3.21199325       -1.01722213
 C           -2.90335001       -2.76576267       -1.81083202
 C            0.58654836       -2.85957926       -1.40983570
 C           -0.62904235       -3.33908968       -1.89124549
 C            2.43664777       -1.35019697       -1.62553408
 C            2.65895187        0.07664526       -1.75760137
 C            1.26564329       -1.88592488       -2.14858463
 C            1.36028415        2.12120908       -1.77733561
 C            1.64656672        0.85656327       -2.30882069
 C           -0.51852061        3.48091442       -1.12637604
 C           -1.92538780        3.20492889       -0.88889481
 C            0.15996133        2.75708766       -2.10843078
 C           -3.32094032        1.33543368       -1.58425404
 C           -2.65203308        2.58882028       -1.89152351
 C           -3.57442890       -0.76356540       -2.81200443
 C           -3.47495085        0.61782783       -2.83839327
 C           -2.49370274       -2.80861775       -3.20315308
 C           -1.04899080       -2.95954886       -3.22544854
 C           -2.80990750       -1.52150076       -3.78928371
 C            0.57282042       -1.14863479       -3.11435008
 C            0.72715201        0.24191364       -3.15888298
 C           -0.47884828       -1.75596954       -3.79522333
 C           -1.57626205       -0.94776158       -4.30216285
 C           -0.55843289        2.31731918       -3.21566238
 C           -2.00802163        2.41783245       -3.18000919
 C           -2.55848913        1.22418503       -3.79257225
 C           -0.22339763        1.03081699       -3.79729721
 C           -1.44985247        0.43270348       -4.30091606
