   70
C70 / DATE: 7/ 1/2024 / Origin: Program Fullerene / C70 from database
 C            1.25535039        0.03570534        4.40405744
 C            2.52811989       -0.19331657        3.75762070
 C            2.58047023       -1.59475501        3.39638052
 C            0.43650830       -1.15371416        4.21796859
 C            1.23628976       -2.13473779        3.52229711
 C           -0.81434075       -0.73852854        3.62412664
 C            0.47018875        1.16905875        3.96967688
 C           -0.88315033        0.70629856        3.71961910
 C            1.01483056        2.07834023        3.07194392
 C            2.84758124        0.57735594        2.56897733
 C            2.04145619        1.65212699        2.21185801
 C            3.23300025       -1.69268892        2.10332972
 C            3.25733596       -0.35419073        1.52981967
 C            2.86269450       -2.74494223        1.28665176
 C            0.70479857       -2.81137015        2.42890514
 C            1.62430400       -3.44216265        1.59939287
 C           -1.24424951       -1.33937061        2.45207242
 C           -0.54209953       -2.42429594        1.89976319
 C           -2.20651750       -0.68003924        1.69587507
 C           -1.64639531        1.41122259        2.79035212
 C           -2.39071454        0.70098909        1.84110774
 C            0.14991830        3.07033727        2.62892627
 C           -1.25875933        2.72359357        2.50721114
 C            0.51507642        3.84428733        1.46259822
 C            2.02128192        2.03704383        0.87102318
 C            1.46306396        3.25974933        0.53951503
 C            2.81042981       -0.15095242        0.21940460
 C            2.25547444        1.08474753       -0.12744437
 C            2.84763655       -2.53426066       -0.14460628
 C            2.66299691       -1.24365941       -0.64199374
 C            1.16809208       -4.06687025        0.38209912
 C            2.04548734       -3.60840542       -0.68332204
 C           -1.02874749       -3.03226340        0.72762781
 C           -0.19379108       -3.83284079       -0.04415190
 C           -2.83059298       -1.36551379        0.66514227
 C           -2.18533933       -2.54528703        0.12505874
 C           -3.41923780       -0.63045312       -0.43916634
 C           -3.10891645        1.40625355        0.87589654
 C           -3.52497422        0.74440860       -0.34851670
 C           -1.79052769        3.40986533        1.34009170
 C           -0.70199728        4.14290773        0.72642638
 C           -2.69796056        2.75285387        0.52409574
 C            0.94917911        3.46122390       -0.79518307
 C           -0.42377272        3.93251629       -0.67973484
 C            1.81101679        1.30547854       -1.43840446
 C            1.23744412        2.54002515       -1.79053123
 C            2.04437081       -1.06430321       -1.88631325
 C            1.80974834        0.23724796       -2.34857521
 C            1.21921666       -3.31975257       -1.82605926
 C           -0.15861290       -3.63235249       -1.48334332
 C            1.44868733       -2.15964362       -2.54167550
 C           -2.25472152       -2.46523208       -1.33013284
 C           -2.93798800       -1.22448101       -1.67192004
 C           -1.17317085       -2.89722470       -2.10068773
 C           -2.42763052       -0.41996716       -2.68699953
 C           -3.09317452        1.56534683       -1.46683318
 C           -2.54075538        2.80200046       -0.92622167
 C           -1.39234598        3.35790751       -1.50089731
 C           -2.49146662        0.97987051       -2.57804041
 C            0.44328073        2.62061199       -2.92508976
 C           -0.97335091        2.89259453       -2.74454433
 C           -1.68403441        1.79308392       -3.37024506
 C            1.31907384        0.42072879       -3.64198022
 C            0.57288081        1.61757055       -3.95199438
 C           -0.77242193        1.20973750       -4.33289109
 C            0.53787275       -1.91754318       -3.55416286
 C           -0.86081598       -2.21103300       -3.27849138
 C           -1.61852119       -1.02588785       -3.64510128
 C            0.60574352       -0.66779762       -4.26828856
 C           -0.75980600       -0.22325254       -4.49336952
