   70
C70 / DATE: 7/ 1/2024 / Origin: Program Fullerene / C70 from database
 C            1.21240524        0.11434040        4.85960941
 C            2.44511818       -0.12950294        4.14140369
 C            2.46449191       -1.53260150        3.76193360
 C            0.38008864       -1.07298455        4.72885231
 C            1.15039125       -2.08550191        4.02668810
 C           -0.90192972       -0.65706798        4.18185720
 C            0.40889355        1.25672534        4.47966999
 C           -0.94767136        0.78620038        4.25623484
 C            0.78475943        2.03204389        3.30942216
 C            2.74134900        0.65060734        2.94876871
 C            1.85833882        1.63306958        2.50880936
 C            3.00059220       -1.61269381        2.41547972
 C            3.31057825       -0.25944606        1.97652793
 C            2.44131757       -2.49705867        1.49669826
 C            0.52756237       -2.83040003        3.03468781
 C            1.25032800       -3.15646372        1.81208342
 C           -1.38989594       -1.28613958        3.03950508
 C           -0.83811434       -2.50444615        2.65333096
 C           -2.16690707       -0.56970582        2.12204943
 C           -1.47482900        1.51249350        3.12066119
 C           -0.45407118        2.43182677        2.66319205
 C           -2.19164887        0.83161129        2.15263190
 C           -0.41562441        2.74231681        1.30891129
 C            1.84082964        1.97471432        1.15648383
 C            0.83298148        2.82649471        0.70690527
 C            3.20164566        0.03545318        0.62238680
 C            2.55084781        1.20509768        0.22348148
 C            2.78095257       -2.32728979        0.15888359
 C            3.27166799       -1.02648684       -0.26994440
 C            1.88395163       -2.80679964       -0.87682618
 C            0.25387587       -3.38882426        0.77349780
 C           -1.03679084       -2.97699378        1.29495208
 C            0.56351895       -3.10401084       -0.55105865
 C           -2.63600920       -1.21864841        0.97749740
 C           -1.90108849       -2.28798016        0.45778368
 C           -3.48968844       -0.51439479        0.13341713
 C           -2.46289031        1.51363246        0.97201852
 C           -1.52312242        2.43968157        0.50514178
 C           -3.35396309        0.92942857        0.08921900
 C           -1.47144282        2.77728031       -0.85476040
 C            0.89780834        3.31404010       -0.58617061
 C           -0.34783843        3.47175384       -1.30977979
 C            2.38650581        1.47029989       -1.13925042
 C            1.83500348        2.69420986       -1.50075284
 C            2.86589604       -0.83167528       -1.65024345
 C            2.17319230       -2.03718114       -2.07398080
 C            2.38165600        0.40872108       -2.05375612
 C            1.19744771       -1.93369105       -3.04923172
 C           -0.46031647       -2.73717205       -1.42980031
 C           -1.71951964       -2.39687282       -0.92207299
 C           -0.13531243       -2.42485146       -2.74964044
 C           -3.67985442       -0.98301896       -1.22551782
 C           -2.70622037       -1.90458882       -1.77115419
 C           -3.35993723        1.34128138       -1.29835417
 C           -2.36309279        2.18970570       -1.76686600
 C           -3.72661069        0.18077500       -2.09352953
 C           -2.06838429        2.15587557       -3.13259094
 C           -0.00633460        3.47972495       -2.71722951
 C            1.31379366        2.87810122       -2.84081785
 C           -0.88598729        2.81336866       -3.64716181
 C            1.62045262        0.48487937       -3.22676411
 C            1.03859699       -0.67111863       -3.74658935
 C            1.18813197        1.71978927       -3.69733031
 C           -0.10561778        1.80996389       -4.35431231
 C           -1.07157812       -1.68094254       -3.57768748
 C           -2.34903121       -1.43166214       -3.09763082
 C           -2.95367348       -0.11926331       -3.28547253
 C           -2.21135531        0.90469507       -3.86013377
 C           -0.32634607       -0.62412987       -4.24696761
 C           -0.92227285        0.61140635       -4.46729756
