   70
C70 / DATE: 7/ 1/2024 / Origin: Program Fullerene / C70 from database
 C            1.04248575       -0.05211835        4.71144635
 C            2.33301552       -0.42708786        4.17481931
 C            2.19627774       -1.75162038        3.58189569
 C            0.19984017       -1.23026688        4.63594435
 C            0.79845722       -2.11201013        3.64980861
 C           -1.14901238       -0.76388590        4.40631117
 C            0.31539401        1.02631621        4.06412306
 C           -1.08148831        0.66329067        4.11124060
 C            0.83685868        1.58335567        2.89865655
 C            2.92550747        0.42413195        3.16513289
 C            2.21945607        1.52698797        2.69601800
 C            2.83962341       -1.71530560        2.28668324
 C            3.54546247       -0.44867343        2.18758317
 C            2.16030730       -2.17937093        1.16888965
 C            0.10030075       -2.37964314        2.47171377
 C            0.77872926       -2.41471235        1.23848313
 C           -1.90768591       -1.37160031        3.33515863
 C           -1.29688579       -2.29941753        2.49281923
 C           -1.90297223        0.90181518        2.94163860
 C           -2.67364993       -0.30485383        2.72441122
 C           -0.01543752        1.92635011        1.83071566
 C           -1.35979217        1.53928036        1.82981033
 C            0.51692532        2.54530697        0.69759442
 C            2.75733675        2.18482216        1.60509536
 C            1.86679896        2.88994511        0.70944606
 C            3.80790389        0.07526555        0.92428120
 C            3.70732773        1.45867376        0.77427985
 C            2.74053698       -1.91031753       -0.06454936
 C            3.61736998       -0.75407362       -0.18517965
 C            1.94401771       -1.99842420       -1.27338747
 C            0.05764876       -2.64086614        0.06020457
 C            0.58389714       -2.25082594       -1.17173837
 C           -2.00796729       -2.66844777        1.35999160
 C           -1.28346667       -2.97774793        0.14343385
 C           -3.17731047       -0.52916778        1.45547245
 C           -3.13021624       -1.83283661        0.97222622
 C           -2.03350590        1.41018362        0.61407865
 C           -3.10303425        0.50855639        0.53028206
 C           -0.19900504        2.53139827       -0.51370039
 C           -1.48130316        1.95695618       -0.55042220
 C            0.44330269        2.89424106       -1.71201497
 C            2.57683187        3.02645071       -0.54014606
 C            3.65256155        2.04502367       -0.54919553
 C            1.83010951        2.86638100       -1.75799797
 C            3.42582494       -0.19052121       -1.51547713
 C            2.40225665       -0.97173099       -2.19112278
 C            3.45660199        1.18185246       -1.69711894
 C            2.44756462        1.80310766       -2.53066232
 C            1.46438832       -0.34263728       -3.00350290
 C            1.60089408        1.02177848       -3.30811887
 C           -0.26778112       -1.83212042       -2.20160327
 C            0.22933216       -0.97208658       -3.19589531
 C           -2.16172661       -2.67848351       -0.97526260
 C           -3.36646928       -2.05632088       -0.43852178
 C           -1.62522316       -2.18613065       -2.16409279
 C           -3.75508915        0.33182187       -0.68226813
 C           -3.94939844       -1.03033825       -1.16542792
 C           -2.19895209        1.89587952       -1.75239581
 C           -3.37644592        1.15145071       -1.81408471
 C           -0.18211363        2.61919910       -2.91961020
 C            0.49236815        1.68942247       -3.81570728
 C           -1.58648753        2.28967428       -2.93757076
 C           -0.61286045       -0.48043975       -4.18770177
 C           -0.52449690        0.92587115       -4.50047037
 C           -1.80200924        1.51759304       -4.15151696
 C           -2.51515758       -1.64593308       -3.09131550
 C           -3.72360199       -1.01537932       -2.59462305
 C           -3.67565476        0.37277437       -3.00545413
 C           -2.01954837       -0.81163665       -4.16236568
 C           -2.76776612        0.44187504       -4.12946655
