   70
C70 / DATE: 7/ 1/2024 / Origin: Program Fullerene / C70 from database
 C            1.57231046       -0.11717729        5.32913734
 C            0.76851579       -1.32154937        5.21988778
 C            1.61206552       -2.33520525        4.62622535
 C            2.69526489       -0.26640183        4.41888568
 C            2.77259300       -1.66038895        4.05270705
 C            2.54053792        0.71437684        3.36403166
 C            0.76304279        0.98836917        4.85047393
 C            1.45526076        1.60441658        3.73314259
 C           -0.47556597       -0.96005367        4.55376331
 C           -0.57709582        0.48878076        4.61836876
 C           -0.86868100       -1.62792160        3.38557508
 C            1.04510243       -3.17122496        3.59093974
 C           -0.25249789       -2.82393051        3.03025167
 C            2.82462222       -2.00698857        2.64420021
 C            1.98712829       -3.17195429        2.48770992
 C            2.65008439        0.33678868        2.02839322
 C            2.75041741       -1.01232305        1.66354644
 C            2.20013865        1.23652601        1.07396110
 C            0.68794241        2.15507925        2.71030605
 C            1.20733992        2.16110217        1.41816846
 C           -1.33384865        1.13261905        3.65733265
 C           -0.69647378        2.16573685        2.85268509
 C           -1.67692626       -0.96963320        2.44985452
 C           -2.09712228        0.32573211        2.72774818
 C           -1.81146322       -1.46850721        1.14134452
 C           -0.19283335       -3.18370439        1.63090324
 C            1.21157706       -3.26703880        1.27627622
 C           -1.02865363       -2.54544305        0.72195667
 C            2.38285325       -1.38289570        0.35829399
 C            1.61025786       -2.53456800        0.17161853
 C            2.40238493        0.93578215       -0.26571739
 C            2.37076943       -0.40506397       -0.65240041
 C            2.10708071        1.92507481       -1.19017056
 C            0.46744019        2.76021949        0.39873971
 C            1.07794494        2.88858404       -0.84174443
 C           -1.51930330        2.32596546        1.66569920
 C           -2.43609527        1.20134985        1.63184223
 C           -0.92805083        2.71204414        0.46394813
 C           -2.45352611       -0.69548251        0.15652688
 C           -2.71443688        0.65855061        0.39509552
 C           -2.46740897       -1.14673508       -1.17699861
 C           -0.63591080       -2.57022290       -0.61089014
 C            0.73217105       -2.53399260       -0.89187406
 C           -1.52224640       -2.09896065       -1.57349679
 C            1.88571475       -0.74508467       -1.92952974
 C            1.14197799       -1.92225171       -2.05730499
 C            1.93016730        1.57384844       -2.58257720
 C            1.82358067        0.23380223       -2.93535915
 C            0.26098384        3.09791375       -2.02139174
 C            0.99843092        2.54022905       -3.14288462
 C           -1.65401421        2.48709804       -0.71210337
 C           -2.67477130        1.52713472       -0.68233818
 C           -1.11146044        2.89344446       -1.93586931
 C           -3.09238044       -0.34529396       -2.14079499
 C           -3.22509569        1.07097038       -1.86336253
 C           -2.75552217       -0.48108663       -3.54954876
 C           -1.10340231       -2.16241869       -2.90363305
 C            0.32318722       -2.10573945       -3.15649127
 C           -1.76298638       -1.37371700       -3.92542109
 C            1.29259317       -0.08206248       -4.18713405
 C            0.54808367       -1.31139011       -4.33746505
 C           -0.75093836       -0.98751445       -4.90156818
 C            0.31459892        2.22203836       -4.30665857
 C            0.58262254        0.94298452       -4.93990301
 C           -0.68721058        0.38159312       -5.37791122
 C           -1.83542375        2.69898130       -3.11061801
 C           -2.97482734        1.80699308       -3.08135962
 C           -2.82137117        0.84287851       -4.15526688
 C           -1.12001861        2.45026357       -4.35361811
 C           -1.73922411        1.30665498       -5.00613558
