   70
C70 / DATE: 7/ 1/2024 / Origin: Program Fullerene / C70 from database
 C            1.30916407       -0.01832894        4.30995420
 C            2.56136416       -0.29789853        3.64692396
 C            2.54888766       -1.69608725        3.25921770
 C            0.47373281       -1.20871217        4.21045183
 C            1.18770170       -2.18099479        3.41224206
 C           -0.83943780       -0.78076469        3.77315467
 C            0.51222957        1.09960002        3.84698003
 C           -0.86794656        0.66444874        3.90090965
 C            0.92893356        1.85965231        2.75344915
 C            2.91048441        0.47280501        2.47191060
 C            2.09741803        1.51715529        2.05068930
 C            3.17482661       -1.79825126        1.95286889
 C            3.41789052       -0.44538134        1.46985750
 C            2.67717308       -2.73831549        1.06483955
 C            0.55941101       -2.75628234        2.31173783
 C            1.36273578       -3.31005837        1.31606671
 C           -1.41010551       -1.36727563        2.64517703
 C           -0.77987816       -2.45586980        2.03023176
 C           -2.44640269       -0.69409107        1.98775364
 C           -1.80369749        1.36699268        3.16442240
 C           -2.74211162        0.62103047        2.34672343
 C           -0.00073387        2.72213107        2.15953056
 C           -1.36388966        2.50374838        2.36896020
 C            0.38410697        3.48406581        1.05905948
 C            2.27794476        1.99617131        0.75901811
 C            1.64750302        3.18263083        0.42094939
 C            3.20654287       -0.15128470        0.12141810
 C            2.73911862        1.12215356       -0.23857760
 C            2.76128158       -2.46743986       -0.35617671
 C            3.13346171       -1.20140918       -0.79841373
 C            0.78542657       -3.67471212        0.03390691
 C            1.64079033       -3.12935182       -1.00593067
 C           -1.39916719       -3.07341172        0.94773094
 C           -0.58596281       -3.62293120       -0.12558416
 C           -3.02174384       -1.23345030        0.83440381
 C           -2.55993893       -2.44978446        0.33938059
 C           -3.82236938       -0.42829410        0.02298744
 C           -3.24015769        1.53776184        1.33972521
 C           -2.28035938        2.62539808        1.24413398
 C           -3.77951824        1.01512173        0.17959599
 C           -0.58269614        3.72156236       -0.00274683
 C           -1.77051618        3.00204149        0.00463612
 C            1.54525334        3.57030177       -0.96681770
 C            0.14843914        3.87666208       -1.24012400
 C            2.63138932        1.46171280       -1.59512930
 C            1.99399450        2.64094453       -1.97715982
 C            2.92073136       -0.91115209       -2.13864084
 C            2.79578162        0.47041913       -2.55589848
 C            1.08856529       -2.53296911       -2.13814710
 C            1.91742438       -1.68061009       -2.86003665
 C           -1.12698440       -3.13674109       -1.38068556
 C           -2.46597947       -2.65795561       -1.10018601
 C           -0.30788713       -2.42714454       -2.26050088
 C           -3.88463213       -0.69503823       -1.40243833
 C           -3.03914910       -1.73549184       -1.95819507
 C           -3.36014489        1.57021487       -1.09444927
 C           -2.19565935        2.33251042       -1.15191076
 C           -3.58619748        0.54989664       -2.09482941
 C           -0.25708183        3.09213344       -2.38698855
 C            0.95911092        2.59130024       -2.99869078
 C           -1.36051920        2.24879363       -2.28071567
 C            1.94719818        0.48956008       -3.73612964
 C            1.35143199       -0.82927395       -3.87768540
 C            0.88304466        1.47444693       -3.81381330
 C           -0.88975677       -1.52019356       -3.16392893
 C           -2.21981062       -1.13353991       -2.99579967
 C           -2.53850555        0.28501598       -3.05324181
 C           -1.49247502        1.18975587       -3.19175452
 C           -0.08252847       -0.67114055       -3.91594598
 C           -0.37654951        0.75349229       -3.90372561
