   70
C70 / DATE: 7/ 1/2024 / Origin: Program Fullerene / C70 from database
 C            1.19648348        0.02219125        4.66236140
 C            2.50119038       -0.13082905        4.05157782
 C            2.48976807       -1.37839372        3.30370035
 C            0.37960147       -1.10624860        4.24188119
 C            1.12986054       -1.86668487        3.26633740
 C           -0.91429377       -0.59637134        3.85318421
 C            0.44291187        1.23857695        4.41417019
 C           -0.89844862        0.85261705        3.99860948
 C            1.06646716        2.31715243        3.80030391
 C            2.99742717        0.91399366        3.16996792
 C            2.32317801        2.12447552        3.08361791
 C            3.15208770       -1.14247441        2.04322610
 C            3.46004039        0.27635027        1.95056361
 C            2.67244727       -1.76732238        0.90091363
 C            0.55024898       -2.12216487        2.02566017
 C            1.36888564       -2.28907352        0.90123255
 C           -1.54971035       -1.13536128        2.74439306
 C           -0.82864497       -1.94796203        1.85532360
 C           -2.64258213       -0.43446430        2.26808050
 C           -1.61381573        1.63112171        3.08143558
 C           -2.61638470        1.01644165        2.33509129
 C            0.25793779        3.23602804        3.02583327
 C           -1.07366661        2.82738318        2.61024108
 C            2.19583656        2.76528056        1.78584109
 C            1.00678883        3.58885245        1.83100977
 C            3.29057309        0.90515818        0.71533463
 C            2.47430948        2.03829954        0.62827583
 C            3.19756024       -1.30757370       -0.29447588
 C            3.46815428        0.11500771       -0.41412756
 C            2.62059211       -1.75847191       -1.53503997
 C            0.78223644       -2.68669568       -0.30611699
 C            1.51244184       -2.58510162       -1.50076716
 C           -1.41529391       -2.34572292        0.64802865
 C           -0.60059008       -2.90331331       -0.34580041
 C           -3.21878703       -0.80980509        1.00225177
 C           -2.70923370       -1.90528716        0.32672654
 C           -2.92304378        1.51285822        1.00139213
 C           -3.46297746        0.40341142        0.24083609
 C           -1.21826852        3.17190106        1.20166983
 C            0.09639631        3.53688469        0.71077920
 C           -2.04714358        2.39676925        0.38811688
 C            1.74041796        2.29007728       -0.54382849
 C            0.51596526        2.96721564       -0.47543899
 C            2.94375398        0.55369667       -1.69217820
 C            2.62014835       -0.63927419       -2.46115605
 C            2.08764643        1.64434423       -1.73893706
 C            1.62434477       -0.57895373       -3.43312617
 C            0.88017328       -2.80979256       -2.71461731
 C            0.88954459       -1.73943531       -3.70215072
 C           -1.18297592       -3.43480509       -1.49420980
 C           -0.42502836       -3.42748009       -2.72639879
 C           -3.18441065       -2.08436520       -0.96458928
 C           -2.53406238       -3.04267989       -1.82585996
 C           -3.27799777        0.35227477       -1.13565983
 C           -3.46621180       -0.88971418       -1.74553557
 C           -1.69553121        2.18771803       -0.95296110
 C           -0.45951683        2.66545678       -1.40739310
 C           -2.44086294        1.29503174       -1.74250505
 C            1.26799151        1.78929629       -2.86005422
 C            1.10869536        0.66970740       -3.77919840
 C           -0.03690728        2.39971573       -2.69521000
 C           -2.15635638        1.17474221       -3.10287303
 C           -0.21780569        0.77025702       -4.36499581
 C           -0.95296027        1.78405350       -3.62701955
 C           -0.44711191       -1.65681614       -4.27435715
 C           -1.22396497       -2.76413621       -3.74579223
 C           -2.52751244       -2.49559349       -3.17363924
 C           -2.99952092       -1.12191636       -3.10047393
 C           -1.04741679       -0.41487079       -4.43619712
 C           -2.30306717       -0.11518706       -3.75528451
