   70
C70 / DATE: 7/ 1/2024 / Origin: Program Fullerene / C70 from database
 C            1.52702516       -0.05389583        4.81420176
 C            0.73922032       -1.25055896        4.61280834
 C            1.28342897       -1.97567355        3.47333658
 C            2.63908321       -0.11124831        3.89051008
 C            2.45779578       -1.26203033        3.01853446
 C            2.72741653        1.18921111        3.26606653
 C            0.69993647        1.07708171        4.42115719
 C            1.40328174        1.78487200        3.37352902
 C           -0.64458306       -0.83280443        4.53979755
 C           -0.62378273        0.56725491        4.14099517
 C           -1.51027221       -1.67310206        3.86551325
 C            0.38327020       -2.48819372        2.54631870
 C           -0.92308501       -2.67800472        2.99270193
 C            0.62362010       -2.31208895        1.17242837
 C            2.67253667       -1.08335503        1.65642395
 C            1.76241796       -1.61373346        0.73397925
 C            3.34158303        1.24331350        2.03239970
 C            3.45689708        0.00242692        1.27747491
 C            2.84757710        2.20992544        1.08220607
 C            0.72803061        2.13191580        2.20085938
 C            1.48951168        2.52887185        1.10002623
 C           -1.26384323        0.93167079        2.95763562
 C           -0.59688267        1.72116795        2.00147481
 C           -2.57941932       -1.07484518        3.09360042
 C           -2.40129258        0.21199416        2.58611353
 C           -1.94687523       -3.06181149        2.05093650
 C           -3.04848724       -2.12244243        2.20820601
 C           -0.32507961       -2.75082761        0.23255915
 C           -1.61021658       -3.09753404        0.64866362
 C           -0.14760690       -2.45576313       -1.11967749
 C            1.93282272       -1.35344167       -0.63273892
 C            1.07783667       -1.95254082       -1.55533351
 C            3.53220990        0.37515325       -0.12159796
 C            3.44933908        1.82506093       -0.17312262
 C            2.82180817       -0.35740110       -1.06279793
 C            2.94398864        2.40048372       -1.31988785
 C            0.86351305        2.83029435       -0.11166370
 C            1.68197349        3.10815774       -1.20636871
 C           -1.22221665        2.00548544        0.78253465
 C           -0.46401183        2.42853119       -0.31396365
 C           -3.10911920        0.59819827        1.45424583
 C           -2.54021108        1.61322196        0.58861671
 C           -3.50547359       -1.75611194        0.88388714
 C           -2.74167137       -2.54311606       -0.06944821
 C           -3.72497994       -0.41642149        0.60637222
 C           -1.28367602       -2.33319651       -1.93034645
 C           -2.50351814       -2.02597540       -1.33367613
 C           -1.14638827       -2.09492034       -3.28934901
 C            1.28493254       -1.72636398       -2.91335639
 C            0.17817660       -1.89046030       -3.83505268
 C            2.67905057        0.19056751       -2.33968143
 C            2.82180237        1.57025669       -2.50029315
 C            2.02171078       -0.54530815       -3.31860173
 C            1.11455131        3.15897132       -2.53524381
 C            1.91394001        2.28022156       -3.37928430
 C           -1.02259447        2.39771981       -1.60725970
 C           -0.26752164        2.78513951       -2.71075993
 C           -3.01407650        1.35605447       -0.75632243
 C           -3.60268158        0.02815609       -0.76692203
 C           -3.17891010       -0.87021164       -1.74078199
 C           -2.22740492        1.72851074       -1.83683302
 C           -2.02913434       -1.11176956       -3.88274377
 C           -2.87228653       -0.33863051       -2.98879376
 C           -2.41280393        1.04134087       -3.03944741
 C            0.13035938       -0.72030879       -4.69873355
 C            1.23435931        0.14450198       -4.33369813
 C            1.00750363        1.50990607       -4.20447438
 C           -0.33966133        1.99420782       -3.92635361
 C           -1.21653388       -0.18392051       -4.64869485
 C           -1.42620917        1.14816458       -4.10281039
