   70
C70 / DATE: 7/ 1/2024 / Origin: Program Fullerene / C70 from database
 C            0.99531602       -0.04897427        4.75026874
 C            2.25441510       -0.31214210        4.08859736
 C            2.25161116       -1.70729403        3.69555449
 C            0.18983371       -1.26122099        4.66864115
 C            0.87961846       -2.16945279        3.77950477
 C           -1.16044306       -0.86920483        4.33735933
 C            0.17288341        1.04165280        4.26864259
 C           -1.19483059        0.58346926        4.33475958
 C            0.55787140        1.76801181        3.14326749
 C            2.59409132        0.45888676        2.91107500
 C            1.77111664        1.49321258        2.49123208
 C            2.91828200       -1.80610051        2.41156885
 C            3.10619462       -0.45380815        1.90468670
 C            2.45724353       -2.76446278        1.53068545
 C            0.26349833       -2.61202709        2.60796339
 C            1.07942985       -3.22753039        1.66964076
 C           -1.72296273       -1.31268268        3.07454915
 C           -0.93337740       -2.02096198        2.17527487
 C           -2.08460399        0.98755025        3.26953260
 C           -2.52397572       -0.21776120        2.57756585
 C           -0.41336693        2.52137183        2.47110811
 C           -1.75104106        2.09277851        2.49217123
 C            0.01900682        3.40305958        1.47998300
 C            1.95491758        1.97177393        1.20187978
 C            1.31008509        3.15143360        0.87015860
 C            2.84972923       -0.18092871        0.55443447
 C            2.35139851        1.07606466        0.19579447
 C            2.66415948       -2.54527677        0.11917120
 C            2.77170356       -1.23841128       -0.35988419
 C            0.57471288       -3.46341846        0.33235037
 C            1.73881285       -3.44371268       -0.53237724
 C           -1.23790532       -1.95838199        0.80619118
 C           -0.58092334       -2.80725610       -0.08871388
 C           -2.77954933       -0.12235516        1.21514161
 C           -2.16589604       -1.01989832        0.32882457
 C           -2.54936187        2.29995979        1.37376272
 C           -3.14245604        1.13173082        0.74608645
 C           -0.88780140        3.81690965        0.42313389
 C           -2.12706249        3.21033943        0.32605411
 C            1.24998806        3.56057665       -0.51284615
 C           -0.10470482        4.01604562       -0.78105971
 C            2.03870503        1.33069393       -1.14466592
 C            1.60526207        2.59388848       -1.52975757
 C            2.40053889       -0.99249974       -1.68669730
 C            1.89402566        0.26704563       -2.03681876
 C            1.52537968       -3.26160078       -1.87759467
 C            2.13287290       -2.09883416       -2.49393815
 C           -0.80773885       -2.69202684       -1.46419206
 C            0.15502556       -3.22766587       -2.32820672
 C           -2.32432264       -0.84245290       -1.05443906
 C           -1.73090465       -1.75226571       -1.94288201
 C           -3.19151995        1.36668895       -0.67335824
 C           -2.56916435        2.65398699       -0.94634141
 C           -2.94386290        0.32167507       -1.54395362
 C           -0.53624090        3.39367134       -2.01909404
 C            0.61519904        2.69940159       -2.58022506
 C           -1.79409150        2.79397319       -2.10119188
 C            1.17018349        0.45508887       -3.23031013
 C            0.38698041        1.60387940       -3.39821580
 C            1.44124945       -1.92283934       -3.75257601
 C            0.24716164       -2.76089380       -3.69308457
 C            1.00821892       -0.59888673       -4.12851547
 C           -1.90338994       -1.58924649       -3.32246048
 C           -0.84853163       -1.99588638       -4.22784916
 C           -0.27809408       -0.77724537       -4.77495528
 C           -2.76807869        0.68427214       -2.86862523
 C           -2.01840986        1.89929627       -3.14655222
 C           -0.88563001        1.48632596       -3.95034357
 C           -2.36183488       -0.31506668       -3.82538797
 C           -1.27464540        0.25595872       -4.60950244
