   70
C70 / DATE: 7/ 1/2024 / Origin: Program Fullerene / C70 from database
 C            1.18161647       -0.11535421        4.65596688
 C            2.41582638       -0.45803553        3.98240302
 C            2.22159672       -1.75609413        3.35276161
 C            0.32269464       -1.28340372        4.57771545
 C            0.82084397       -2.09548779        3.48691723
 C           -1.03233483       -0.79956527        4.50241503
 C            0.40864195        1.00295394        4.14641651
 C           -0.97753993        0.64995979        4.33608682
 C            0.80534241        1.60472059        2.95442267
 C            2.90589838        0.43704650        2.95403911
 C            2.16016954        1.56103740        2.60963331
 C            2.78306312       -1.67721333        2.02168116
 C            3.42730188       -0.38804805        1.87860544
 C            2.04707170       -2.13898393        0.95055662
 C            0.05121068       -2.24614896        2.33014404
 C            0.68896708       -2.44955845        1.10443318
 C           -1.88137623       -1.29250158        3.44041497
 C           -1.32555066       -1.98463833        2.35735405
 C           -1.93223653        0.98575367        3.30041799
 C           -2.76822331       -0.18886502        3.15655741
 C           -0.15122821        1.96388939        1.98460159
 C           -1.50142676        1.63481020        2.14149977
 C            0.26633383        2.57246188        0.80173999
 C            2.58378432        2.26498134        1.49613330
 C            1.59745299        2.96519965        0.70287568
 C            3.51304178        0.18591038        0.60862937
 C            3.45412127        1.57606835        0.55726982
 C            2.51138209       -1.81954240       -0.31175504
 C            3.10356002       -0.56098072       -0.51350868
 C            1.95918697       -2.51684961       -1.36967076
 C           -0.07930606       -2.69429838       -0.03483344
 C            0.58141541       -2.95498830       -1.23492518
 C           -2.06749857       -2.03503023        1.16851347
 C           -1.41942242       -2.29619929       -0.05116779
 C           -3.53590933       -0.28091008        2.02111273
 C           -3.32925791       -1.43832567        1.17439594
 C           -2.33476487        1.59213260        1.01758050
 C           -3.50920974        0.84059520        1.10904312
 C           -0.53290898        2.47741622       -0.34911218
 C           -1.83311139        1.95546080       -0.24402003
 C           -0.01066649        2.83031105       -1.60606208
 C            2.19054586        3.16149559       -0.59960827
 C            3.31026354        2.23763418       -0.71634178
 C            1.35932396        2.98242253       -1.76199449
 C            3.06981626        0.04389149       -1.78556742
 C            3.08983721        1.42890190       -1.89329398
 C            2.05213843        2.08235848       -2.66969933
 C            2.15791253       -2.03134114       -2.71179137
 C            2.58791592       -0.66262979       -2.88280103
 C           -0.08703269       -2.68761537       -2.49154860
 C            0.91248849       -2.21140223       -3.43400625
 C           -2.06547795       -2.05805073       -1.28083820
 C           -1.33397049       -2.08158483       -2.47060782
 C           -3.97477792       -1.10984927       -0.07384077
 C           -4.13349716        0.34150967       -0.09192720
 C           -3.32911974       -1.47803215       -1.31018172
 C           -2.60126649        1.72512072       -1.40005176
 C           -3.64147155        0.80226367       -1.36315282
 C           -3.55814181       -0.37063502       -2.21442300
 C           -0.71200684        2.49708895       -2.75279909
 C           -2.06186502        1.99717286       -2.64979032
 C            1.28912798        1.32637012       -3.55612942
 C            1.64929880       -0.00744316       -3.78632299
 C            0.64559437       -0.99475011       -4.17634961
 C           -0.02224539        1.73922418       -3.78954594
 C           -1.70330094       -1.24635838       -3.53127357
 C           -2.78167264       -0.28584429       -3.35594460
 C           -2.25001287        1.01803319       -3.71027215
 C           -0.67375603       -0.60171401       -4.33619282
 C           -0.97319921        0.81407697       -4.37098627
