   70
C70 / DATE: 7/ 1/2024 / Origin: Program Fullerene / C70 from database
 C            1.25425612       -0.13384887        4.20737775
 C            2.53210959       -0.42152645        3.59747719
 C            2.43302924       -1.71693588        2.94282324
 C            0.41183096       -1.30428990        4.02774301
 C            1.06709118       -2.17773487        3.07852417
 C           -0.92164948       -0.83891516        3.71053023
 C            0.50628748        1.02019231        3.74166359
 C           -0.88206246        0.61529712        3.63414655
 C            1.04152371        1.84482935        2.75632623
 C            3.05490862        0.51411036        2.62551226
 C            2.38971640        1.71005397        2.37884563
 C            2.98659622       -1.58231172        1.60969818
 C            3.53849192       -0.24736579        1.48673920
 C            2.28938514       -2.09955568        0.53097398
 C            0.36686599       -2.54905165        1.93698013
 C            1.04997903       -2.71892047        0.72789495
 C           -1.66835879       -1.52404649        2.75810294
 C           -1.02598176       -2.45731251        1.93299533
 C           -2.82043824       -0.89350229        2.30190316
 C           -1.71098004        1.25044410        2.71293616
 C           -2.84551656        0.55917245        2.28515036
 C            0.16415951        2.61519074        1.98516147
 C           -1.19644863        2.28616915        1.92443812
 C            0.67176926        3.58296221        1.12271626
 C            2.87885631        2.46842502        1.32317644
 C            2.08079343        3.55427744        0.79911410
 C            3.54474156        0.36961491        0.23534535
 C            3.48224871        1.76632694        0.19949845
 C            2.63032647       -1.65402581       -0.73889391
 C            3.16764734       -0.36927844       -0.89508869
 C            2.12277257       -2.34439264       -1.83386878
 C            0.37702696       -3.25918696       -0.37147405
 C            0.98882169       -3.22876118       -1.62448614
 C           -1.72592324       -3.05398965        0.89041745
 C           -0.99533157       -3.49803881       -0.28495529
 C           -3.49369533       -1.37319112        1.10849766
 C           -2.98421483       -2.47896116        0.44409866
 C           -3.55840772        0.98018657        1.09103502
 C           -3.94382367       -0.21363657        0.35328690
 C           -1.99254145        2.85001731        0.92605388
 C           -3.12851971        2.10793650        0.40917038
 C           -0.04022250        3.88094763       -0.10652190
 C           -1.36477554        3.50238590       -0.20911855
 C            2.20226068        3.54193307       -0.65052836
 C            3.08910859        2.45414261       -1.02066004
 C            0.85920728        3.56770172       -1.20269690
 C            3.04763455        0.28070261       -2.12202623
 C            2.78568157        1.70502623       -2.14512871
 C            1.92850518       -1.65379982       -3.09820064
 C            2.23244305       -0.30527183       -3.16785802
 C            0.16535980       -3.17791952       -2.81951870
 C            0.66652413       -2.10163846       -3.65570515
 C           -1.84840901       -3.28160206       -1.44652768
 C           -3.01129466       -2.52790413       -1.00904697
 C           -1.26668855       -2.99698980       -2.67444877
 C           -3.87925693       -0.22190457       -1.03574312
 C           -3.42563039       -1.41507794       -1.73391488
 C           -3.01074431        2.07972396       -1.04257481
 C           -1.78797837        2.77890537       -1.39303825
 C           -3.35063687        0.93393378       -1.74406817
 C            0.49300512        2.60330432       -2.14231005
 C            1.49290190        1.88746517       -2.79229424
 C            1.16401212        0.64278745       -3.45830547
 C           -0.82871364        2.14891476       -2.18732820
 C           -0.40225882       -1.13233211       -3.81133406
 C           -1.63092514       -1.77355014       -3.37687846
 C           -2.66314142       -0.98284774       -2.89556083
 C           -2.44716851        0.44738509       -2.77093969
 C           -0.15492002        0.20048915       -3.47979034
 C           -1.15122119        0.95866295       -2.85552035
