   70
C70 / DATE: 7/ 1/2024 / Origin: Program Fullerene / C70 from database
 C            1.21428430        0.30030188        4.95029658
 C            2.42507187        0.03215482        4.20318908
 C            2.42602228       -1.38024795        3.86651938
 C            0.38535866       -0.89607010        4.89888843
 C            1.08350962       -1.88476772        4.09454021
 C           -0.95766299       -0.49678844        4.51830134
 C            0.39452289        1.42277571        4.55089417
 C           -0.97444120        0.94896493        4.41293367
 C            0.72502385        2.14951279        3.33522432
 C            2.68280304        0.76770815        2.97542093
 C            1.78755347        1.74347825        2.52679188
 C            3.00010431       -1.51657910        2.54138349
 C            3.22448122       -0.17898189        2.01605675
 C            2.47427838       -2.47694423        1.69487243
 C            0.41463446       -2.51993284        3.04869351
 C            1.15339300       -3.02355917        1.97946096
 C           -1.63555557       -1.24284399        3.56564993
 C           -0.96311700       -2.35735552        2.91207197
 C           -2.43619300       -0.56505519        2.55520793
 C           -1.52995140        1.56388554        3.21838579
 C           -0.53358162        2.48673753        2.70606389
 C           -2.25099663        0.79283709        2.30431503
 C           -0.54838904        2.74689117        1.34956109
 C            1.74779528        2.04437082        1.16073797
 C            0.65217881        2.74643222        0.64147161
 C            3.01944255        0.07040940        0.66392325
 C            2.58141298        1.33761306        0.29366987
 C            2.55281522       -2.26008903        0.26355901
 C            2.85227851       -0.99437956       -0.22965479
 C            0.50302999       -3.28957344        0.70411409
 C            1.46528629       -2.99558165       -0.34457174
 C           -1.59329050       -2.54196187        1.61239674
 C           -2.56698853       -1.47774145        1.43841412
 C           -0.83254907       -2.94071284        0.51468058
 C           -2.75084591       -0.96990888        0.16526605
 C           -2.38518656        1.27156017        0.99535580
 C           -1.70926103        2.44379042        0.65843108
 C           -2.81463046        0.41183390       -0.02594054
 C           -1.83621901        2.95954294       -0.61680177
 C            0.60680515        3.05718752       -0.72238602
 C           -0.62478647        3.40671433       -1.28002842
 C            2.60437737        1.67196327       -1.04991082
 C            1.64382785        2.63466831       -1.55329394
 C            2.54192268       -0.71484196       -1.56304289
 C            2.69455987        0.59388828       -2.01523173
 C            0.99164422       -2.56404228       -1.57123337
 C            1.71762873       -1.59860680       -2.27020311
 C           -1.26758718       -2.59919489       -0.77111350
 C           -2.38939547       -1.77433494       -0.90386495
 C           -0.36624500       -2.70454332       -1.83414137
 C           -2.81904572       -1.39664859       -2.16540757
 C           -2.96092046        0.90760456       -1.32939066
 C           -2.62235114        2.23316267       -1.59110198
 C           -3.09533239        0.00996968       -2.39430818
 C           -0.84154176        3.27813199       -2.70997393
 C           -2.11674348        2.60391759       -2.90206354
 C            1.38691377        2.30403791       -2.95054504
 C            2.03087196        1.02939145       -3.23215434
 C            0.15228480        2.59787176       -3.51505350
 C            1.32596125       -1.28859968       -3.57061150
 C            1.39170299        0.08889257       -4.02757539
 C           -0.81308825       -2.49588238       -3.13352532
 C           -2.12677137       -1.91778362       -3.32640496
 C            0.09121749       -1.86336065       -4.07811000
 C           -2.57838872        0.35342929       -3.71440897
 C           -1.93335670        1.56929549       -3.89854932
 C           -0.53489027        1.59671476       -4.31637108
 C            0.11889832        0.41428077       -4.65350413
 C           -2.01296773       -0.84723182       -4.30221814
 C           -0.64162582       -0.81777720       -4.77404645
