   70
C70 / DATE: 7/ 1/2024 / Origin: Program Fullerene / C70 from database
 C            1.41458626       -0.20180869        4.05323615
 C            2.54718276       -0.41882001        3.17191943
 C            2.42171051       -1.75628523        2.60993042
 C            0.55813087       -1.37172526        3.98109742
 C            1.22812164       -2.37032700        3.16840604
 C           -0.77055725       -0.93262030        3.58993292
 C            0.58806319        0.96898335        3.84726404
 C           -0.74732101        0.51549816        3.49260354
 C            1.12844897        2.04361335        3.16393663
 C            2.98988912        0.62009414        2.35347342
 C            2.38941778        1.87931015        2.44794320
 C            3.71444722        0.29742813        1.20672184
 C            2.76071369       -1.95625529        1.27274304
 C            3.67169459       -1.06933002        0.71074503
 C            1.93081781       -2.73505468        0.44880102
 C            0.45413644       -3.18652256        2.36233980
 C            0.92895021       -3.51217811        1.03114616
 C           -1.46182349       -1.66061985        2.62673436
 C           -0.96929731       -2.91099182        2.24681953
 C           -2.37981890       -1.00386991        1.80370189
 C           -1.42900900        1.12529072        2.44389953
 C           -2.39453112        0.39491316        1.75446844
 C            0.25846898        2.84988640        2.32873389
 C           -0.97855367        2.34688672        1.92840410
 C            2.33237934        2.73623428        1.27214501
 C            1.10234879        3.50750577        1.35055033
 C            3.66581739        1.18281516        0.05277720
 C            2.75568231        2.23148223        0.04677714
 C            3.83428992       -1.02550097       -0.72351509
 C            3.81177722        0.36892613       -1.13567475
 C            2.00887294       -2.64365407       -0.95131420
 C            2.88874235       -1.74451731       -1.54350690
 C            0.94911945       -3.09393696       -1.73561081
 C           -0.23483743       -3.89608928        0.25022022
 C           -1.42129068       -3.52118767        1.00796026
 C           -0.20892806       -3.72072854       -1.12391236
 C           -3.08635968       -1.74093502        0.85479020
 C           -2.51879566       -2.97925782        0.35387429
 C           -3.72552473       -1.06698962       -0.26158472
 C           -3.21163126        1.05441127        0.84416007
 C           -3.82502876        0.31605936       -0.24584406
 C           -1.61058960        2.91172453        0.81558668
 C           -2.78660514        2.34270116        0.32996501
 C            0.52051790        3.96087666        0.17968614
 C           -0.91753878        3.83080585        0.02629977
 C            2.00477163        2.49690124       -1.10417304
 C            1.11235628        3.56590388       -1.08594863
 C            2.82887190        0.50677305       -2.19025988
 C            2.37434833       -0.82352311       -2.54620679
 C            1.89364981        1.52737077       -2.11052371
 C            0.48130950       -2.24864078       -2.82249891
 C            1.07054687       -0.99744381       -3.00222156
 C           -1.39601000       -3.24744361       -1.82051389
 C           -2.53747875       -2.91535768       -1.09897741
 C           -3.32428984       -1.75250038       -1.48123190
 C           -0.96072062       -2.40158474       -2.92160396
 C           -2.96996015       -1.01543355       -2.60631638
 C           -1.73104934       -1.31488616       -3.30904916
 C           -3.61502082        1.07239122       -1.46987515
 C           -3.07406395        2.36968121       -1.09914532
 C           -3.14372186        0.42933632       -2.60985071
 C           -1.18944536        3.89629778       -1.39802264
 C            0.06454680        3.63421228       -2.08881154
 C           -2.19927780        3.01930197       -1.96049170
 C            0.70255394        1.39334777       -2.82347475
 C            0.25968871        0.12371415       -3.21147664
 C           -1.07024726       -0.05437117       -3.59242299
 C           -2.03724789        1.00512441       -3.36014372
 C           -0.14407311        2.48955702       -2.95065286
 C           -1.57632310        2.27503123       -3.04493804
