   70
C70 / DATE: 7/ 1/2024 / Origin: Program Fullerene / C70 from database
 C            1.05677224       -0.04887192        4.70059054
 C            2.29300063       -0.41435883        4.04583398
 C            2.21577935       -1.82815691        3.72401932
 C            0.21482760       -1.23552636        4.75213984
 C            0.83603974       -2.24075233        3.91395985
 C           -1.13868049       -0.82653833        4.45587004
 C            0.26049403        1.01922773        4.13194641
 C           -1.12548088        0.60699262        4.21343183
 C            0.67701388        1.66399934        2.97072422
 C            2.66977899        0.28290815        2.83273468
 C            1.89327332        1.33016909        2.35451643
 C            2.81923387       -2.01736148        2.41763048
 C            3.14478618       -0.70215743        1.88164309
 C            2.25339674       -2.95405000        1.56831564
 C            0.14395962       -2.78195991        2.82757025
 C            0.89193956       -3.40254993        1.82492581
 C           -1.82049222       -1.44328832        3.33810520
 C           -1.20389561       -2.45254846        2.59913979
 C           -1.98571667        0.87288870        3.07142756
 C           -2.53470646       -0.39403907        2.62747249
 C           -0.28639846        2.33511128        2.21944741
 C           -1.55916704        1.77313402        2.10511484
 C            0.15577239        3.17892211        1.21196792
 C            2.11033997        1.74959542        1.04425338
 C            1.44932507        2.89313152        0.62227074
 C            2.96529004       -0.45757241        0.51911163
 C            2.55290596        0.81710297        0.09720302
 C            2.38013144       -2.75869785        0.13835894
 C            2.85127652       -1.54492371       -0.35150382
 C            0.28533607       -3.72847050        0.54648991
 C            1.22469510       -3.36630915       -0.50137623
 C           -1.81542418       -2.81504370        1.40067002
 C           -1.05987205       -3.48838403        0.35868144
 C           -2.80566317       -0.57495795        1.27334573
 C           -2.70879364       -1.86186630        0.75791798
 C           -2.15656225        1.71979293        0.84875017
 C           -2.70136482        0.51053985        0.39795733
 C           -0.74745617        3.51457295        0.12648495
 C           -1.88986440        2.74089026       -0.06051583
 C            1.36905175        3.19916170       -0.79084311
 C            0.08688665        3.85075022       -1.01398178
 C            2.42615414        1.08560965       -1.27305639
 C            1.83953565        2.27670015       -1.71700708
 C            2.69956189       -1.30675065       -1.70887499
 C            2.65748676        0.05969218       -2.18408153
 C            0.77061237       -2.82175743       -1.70213422
 C            1.67359338       -2.04573238       -2.42884220
 C           -1.51686958       -2.98397389       -0.92287374
 C           -2.60317291       -2.04907735       -0.67558091
 C           -0.60625741       -2.70212834       -1.94106548
 C           -2.91534984        0.31486402       -0.97038200
 C           -2.74401874       -0.95827283       -1.52341290
 C           -2.48261835        2.69834558       -1.31707132
 C           -2.97921318        1.42622991       -1.80790586
 C           -0.47025478        3.83128383       -2.28388905
 C           -1.84747681        3.39198967       -2.42701049
 C            1.43545521        2.39974414       -3.04727738
 C            0.29746486        3.24651818       -3.36890103
 C            1.94371874        0.04721461       -3.44831894
 C            1.21618553       -1.21196746       -3.52438860
 C            1.34312993        1.21746039       -3.88409884
 C           -1.06492372       -1.93583317       -3.01259062
 C           -2.22550627       -1.08338239       -2.80894545
 C           -0.12900769       -1.21356781       -3.85590366
 C           -2.58289133        1.30150707       -3.20190153
 C           -1.93036397        2.53655634       -3.59844082
 C           -0.61201795        2.47390232       -4.20080169
 C           -0.00376480        1.17488807       -4.43183997
 C           -2.08236663        0.08771616       -3.65204148
 C           -0.76859276        0.02171543       -4.28316389
