   70
C70 / DATE: 7/ 1/2024 / Origin: Program Fullerene / C70 from database
 C            1.54460260        0.04304696        4.44522207
 C            0.73065879       -1.14424280        4.24583571
 C            1.49946127       -2.06005829        3.43921549
 C            2.64254870       -0.01440348        3.49647267
 C            2.69011507       -1.35720309        2.98214728
 C            2.47806735        1.06165614        2.54621184
 C            0.73267045        1.18912860        4.09721428
 C            1.40157263        1.90823908        3.02952765
 C           -0.55983274       -0.72675689        3.74532586
 C           -0.61633508        0.72193391        3.84177434
 C           -1.06617151       -1.34217226        2.60173853
 C            0.84206006       -2.86196185        2.51117129
 C           -0.45543622       -2.50387164        2.10358247
 C            1.67056295       -3.53306832        1.61375367
 C            3.06714295       -1.56013996        1.66380887
 C            2.89675785       -2.86145654        1.21907454
 C            2.54236553        0.77771907        1.18304555
 C            2.90737880       -0.50671065        0.73890789
 C            1.94253462        1.67034025        0.29329006
 C            0.59622245        2.53918282        2.09405865
 C            1.04230088        2.63041372        0.77877185
 C           -1.35167082        1.40671767        2.88806418
 C           -0.77697410        2.54270161        2.31764161
 C           -1.99408474       -0.64254911        1.81797441
 C           -2.27754842        0.69089179        2.13369820
 C           -2.41901031       -1.16769424        0.59272739
 C           -1.03615353       -3.14831608        1.01401451
 C           -2.01562972       -2.43915471        0.21160309
 C            1.11592594       -4.16438913        0.43288957
 C           -0.21463008       -3.93812766        0.11123348
 C            3.15579712       -3.16864525       -0.16211409
 C            2.13462163       -4.10723844       -0.60197689
 C            2.87382632       -0.78641717       -0.63962142
 C            3.17698100       -2.07007762       -1.09777763
 C            2.04743206        1.43893718       -1.07648523
 C            2.30579393        0.14061154       -1.52464814
 C            1.51056820        2.36704144       -1.96648256
 C            0.29919684        3.40257751       -0.11467732
 C            0.66938467        3.43174130       -1.45266692
 C           -1.56562421        3.32347388        1.48708792
 C           -0.97607036        3.83564903        0.25992278
 C           -3.15120175        1.41546879        1.32854899
 C           -2.89320260        2.83489347        1.16360152
 C           -2.93735753       -0.31348321       -0.38080892
 C           -3.51282100        0.88316703        0.02751491
 C           -2.60853010       -0.51967871       -1.72707876
 C           -1.70523969       -2.66714985       -1.18700988
 C           -0.59918636       -3.60396697       -1.25559953
 C           -1.76865366       -1.58550943       -2.06176724
 C            1.75744662       -3.73006137       -1.94821236
 C            2.53484076       -2.55145787       -2.30046305
 C            0.36492598       -3.43844403       -2.23985273
 C            1.72240815       -0.29336938       -2.72677057
 C           -0.74333725       -1.36864884       -2.99392624
 C            1.65896543       -1.64820187       -3.00438489
 C            0.33934112       -2.24074377       -3.05749689
 C            0.88646025        1.87054158       -3.17565834
 C            0.73491048        0.49760318       -3.29799454
 C           -0.54030614       -0.06846120       -3.45895615
 C           -0.32921562        3.73929925       -2.46439199
 C           -0.20374972        2.75608406       -3.52671098
 C           -2.04002833        3.92724571       -0.73133511
 C           -3.18258896        3.19458155       -0.21153930
 C           -3.62460507        1.99588803       -0.90180278
 C           -1.72640850        3.80617445       -2.07752764
 C           -2.74778229        0.51823329       -2.64682313
 C           -1.66083346        0.74501366       -3.57689647
 C           -1.50587066        2.17481699       -3.75827996
 C           -3.25282908        1.81327099       -2.22440690
 C           -2.45692986        2.83954618       -2.88452856
