   70
C70 / DATE: 7/ 1/2024 / Origin: Program Fullerene / C70 from database
 C            1.19993220       -0.05131440        4.60441919
 C            2.43151529       -0.43357603        3.96111403
 C            2.24239479       -1.77585960        3.41940877
 C            0.36191864       -1.23547810        4.61587734
 C            0.83531494       -2.07782935        3.53674107
 C           -0.99811349       -0.76850460        4.56097474
 C            0.40884404        0.99800189        3.99277193
 C           -0.95852148        0.67018830        4.31118460
 C            0.72620789        1.41739268        2.70022003
 C            2.90517079        0.37434483        2.86038193
 C            2.04816775        1.29913647        2.25373374
 C            2.84426798       -1.78035993        2.10415099
 C            3.61138031       -0.55494825        2.00920618
 C            2.08497084       -2.15643911        1.00167717
 C            0.06541291       -2.19648286        2.37646334
 C            0.69263545       -2.31460811        1.12859595
 C           -1.86632660       -1.31713357        3.54550307
 C           -1.31866626       -1.98022569        2.44015522
 C           -1.98560973        0.94354096        3.32992389
 C           -2.80444624       -0.25186366        3.29303027
 C           -0.29369954        1.72729438        1.78330568
 C           -1.64542886        1.53984449        2.11423604
 C            0.05032577        2.13473930        0.49186294
 C            2.38049107        1.74428324        0.97548760
 C            1.39709649        2.32305494        0.17098035
 C            3.95712301       -0.11206804        0.75000171
 C            3.52537569        1.21827996        0.37481325
 C            2.63375403       -1.91625031       -0.25870210
 C            3.63558661       -0.95510605       -0.38795225
 C            1.93310387       -2.31232549       -1.38679002
 C           -0.09177615       -2.46769500       -0.01704156
 C            0.53010169       -2.65340515       -1.24864133
 C           -2.08919870       -2.03490484        1.27186787
 C           -1.45152071       -2.14946005        0.02662142
 C           -3.63905963       -0.40294615        2.21384915
 C           -3.39123419       -1.53522568        1.34304297
 C           -2.60349026        1.49766371        1.09541840
 C           -3.74517924        0.71400739        1.30711193
 C           -0.92961876        2.19917224       -0.50776578
 C           -2.25727144        1.89224191       -0.20315872
 C           -0.56950485        2.46754004       -1.83677799
 C            1.74667535        2.78456688       -1.09709039
 C            0.71906732        2.91943211       -2.11256067
 C            3.66746842        1.29089651       -1.06183338
 C            3.64498271       -0.08418889       -1.55275334
 C            2.94009718        2.25019093       -1.74027932
 C            2.09930974       -1.57705766       -2.63337546
 C            2.85610994       -0.40246485       -2.65524677
 C           -0.15089525       -2.23484233       -2.46004657
 C            0.83816700       -1.65654289       -3.35501885
 C           -2.13443156       -1.85562860       -1.16870929
 C           -1.41220335       -1.66233739       -2.35247751
 C           -4.11947276       -1.24603388        0.12766003
 C           -4.46851948        0.17039591        0.18095566
 C           -3.47107423       -1.47263363       -1.14016150
 C           -3.15457425        1.70144260       -1.25374895
 C           -4.21880469        0.72855734       -1.12073411
 C           -3.87763132       -0.38111641       -1.99350330
 C           -1.36300495        1.98175185       -2.88531783
 C           -1.82135001       -0.68102794       -3.27171491
 C           -2.62818716        1.50389687       -2.58493291
 C           -2.90783960        0.11904852       -2.93773355
 C            0.46397178       -0.62477123       -4.19886830
 C           -0.73705703        1.36881523       -3.96579930
 C           -0.87121748       -0.07124729       -4.08473893
 C            1.33040209        2.60126219       -3.39415517
 C            2.61652409        1.99018003       -3.12618814
 C            2.55034494        0.60674248       -3.56744558
 C            0.62191954        1.72271169       -4.29827206
 C            1.37879707        0.48328514       -4.41321261
