   70
C70 / DATE: 7/ 1/2024 / Origin: Program Fullerene / C70 from database
 C            1.18748667       -0.12917147        4.69696360
 C            2.41884474       -0.49233550        4.03519151
 C            2.24349521       -1.82911409        3.48095747
 C            0.31883778       -1.29338720        4.65436639
 C            0.84377372       -2.17106077        3.62838552
 C           -1.03539796       -0.80972281        4.51811932
 C            0.42402400        0.98364559        4.17063039
 C           -0.97203747        0.63602931        4.34364795
 C            0.81386475        1.58521608        2.97580400
 C            2.89908416        0.34460698        2.95451139
 C            2.09999162        1.37390253        2.45361725
 C            2.81936782       -1.81660009        2.14712225
 C            3.52755683       -0.55633865        2.01391938
 C            2.05943978       -2.27063163        1.07008054
 C            0.09535318       -2.41204114        2.47808642
 C            0.76183504       -2.73940463        1.29544569
 C           -1.84914051       -1.32183702        3.43456120
 C           -1.27939966       -2.12902382        2.44801193
 C           -1.91113174        0.98001612        3.28867382
 C           -2.68540910       -0.21735322        3.01853680
 C           -0.15584166        2.21281541        2.19247383
 C           -1.47405223        1.74799698        2.21069893
 C            0.25390648        3.03411713        1.15523440
 C            2.43301559        1.92105193        1.20964196
 C            1.60437006        2.88525327        0.64538994
 C            3.78294509       -0.08685706        0.73959056
 C            3.35079962        1.25842265        0.39250758
 C            2.44869832       -1.90737861       -0.22362678
 C            3.43024324       -0.92980933       -0.38569952
 C            1.67975015       -2.29934276       -1.32335031
 C            0.02772770       -3.23458901        0.22961867
 C            0.52453920       -3.04407299       -1.12022045
 C           -1.99174294       -2.31373206        1.25845994
 C           -1.40708068       -3.02291318        0.21539295
 C           -3.32384026       -0.31684706        1.79713726
 C           -3.09643499       -1.50607759        0.99241396
 C           -2.21911420        1.73089923        1.02561744
 C           -3.25085389        0.81153212        0.88735660
 C           -0.62874920        3.21849128        0.01936644
 C           -1.74542729        2.39650647       -0.10558181
 C            1.54510115        3.02409370       -0.80280620
 C            0.20703255        3.47883966       -1.13782919
 C            3.18163315        1.29096078       -1.05485318
 C            3.38551535       -0.06287877       -1.54502160
 C            2.17776375        2.08068432       -1.60970769
 C            1.87763285       -1.69198835       -2.56258047
 C            2.68251186       -0.48386437       -2.65706315
 C            0.75438275       -1.54481962       -3.47817522
 C           -0.62018274       -2.84593535       -1.99547464
 C           -1.80979600       -2.76098159       -1.16063638
 C           -0.50523450       -2.01620195       -3.10627543
 C           -3.41351472       -1.14754859       -0.38055587
 C           -3.56049786        0.30175530       -0.42962972
 C           -2.77706985       -1.79583516       -1.43678950
 C           -2.21849525        2.05795222       -1.38259741
 C           -3.09449109        0.97331521       -1.55010905
 C           -0.29787486        3.20497392       -2.39546479
 C           -1.64366056        2.67285971       -2.49858493
 C            1.60886477        1.72405773       -2.83726102
 C            1.91666059        0.48964513       -3.41135698
 C            0.89394437       -0.24947336       -4.13285336
 C            0.52236520        2.44881132       -3.32437117
 C           -1.73863394        2.04610191       -3.80420911
 C           -0.23272184        0.41845426       -4.58789397
 C           -0.38127602        1.83093208       -4.28288279
 C           -1.65000651       -1.38712256       -3.58528930
 C           -2.76609548       -1.16620907       -2.67986599
 C           -3.08307142        0.24990239       -2.73876884
 C           -1.53062670       -0.20777983       -4.42850937
 C           -2.45345595        0.79643748       -3.92163802
