   70
C70 / DATE: 7/ 1/2024 / Origin: Program Fullerene / C70 from database
 C            1.07616434        0.03250642        4.61379205
 C            2.30746040       -0.37595702        3.98219078
 C            2.22158103       -1.80889761        3.75062672
 C            0.23606778       -1.15105434        4.74382923
 C            0.83037811       -2.18457351        3.92345420
 C           -1.12315353       -0.74890144        4.47177414
 C            0.27449738        1.05279859        3.97211840
 C           -1.10259027        0.67853643        4.20291976
 C            0.62325233        1.53503594        2.70758875
 C            2.67755644        0.23519459        2.72268060
 C            1.82834540        1.15520593        2.10097563
 C            2.85765857       -2.08356704        2.47638571
 C            3.27851619       -0.80859934        1.91471567
 C            2.26701956       -3.01196039        1.63361682
 C            0.13438904       -2.70478953        2.82869904
 C            0.86817702       -3.36291811        1.84002823
 C           -1.83016527       -1.37734078        3.37332041
 C           -1.20228510       -2.34208466        2.58769494
 C           -2.05020851        0.92924635        3.14266211
 C           -2.60988708       -0.33859838        2.71826279
 C           -0.36507094        2.13773992        1.92716613
 C           -1.71277424        1.82331022        2.14746338
 C           -0.00933073        2.71211461        0.70422316
 C            2.01740469        1.40289858        0.73672387
 C            1.12281683        2.22846984        0.04203295
 C            3.27341608       -0.64238835        0.53682619
 C            2.93049620        0.61314065        0.03369074
 C            2.47940507       -2.88147741        0.20544209
 C            3.14349664       -1.76515016       -0.28843606
 C            0.27927391       -3.62729966        0.53846857
 C            1.27126408       -3.31562875       -0.47482345
 C           -1.80835526       -2.67195177        1.37705842
 C           -1.04105072       -3.29540518        0.31317292
 C           -2.94845405       -0.48830716        1.37074196
 C           -2.73033820       -1.72543517        0.76489120
 C           -2.56315385        1.87318214        1.06169792
 C           -3.04712036        0.65576218        0.56365220
 C           -1.00820804        3.35948162       -0.02243049
 C           -2.37834985        2.93371881        0.19546416
 C           -0.84142652        3.57064376       -1.44638024
 C            1.27267157        2.42078464       -1.34122761
 C            0.23121951        2.97062751       -2.09601545
 C            3.18669158        0.88118579       -1.30085170
 C            2.34753895        1.83144901       -2.00617429
 C            3.09502966       -1.56797523       -1.66266046
 C            3.40466207       -0.25007053       -2.17757917
 C            0.90384961       -2.66003736       -1.65011151
 C            1.92106687       -2.05335206       -2.37784157
 C           -1.40707211       -2.65770154       -0.93954829
 C           -2.54313304       -1.79524275       -0.67475368
 C           -0.41651013       -2.22531898       -1.82285431
 C           -3.20384802        0.49821611       -0.81814643
 C           -2.68611769       -0.64374502       -1.42755348
 C           -3.05620690        2.91243075       -1.07914733
 C           -2.16864649        3.52742123       -2.04579947
 C           -3.45339860        1.62299550       -1.60123145
 C           -2.35431753        2.82485555       -3.29787503
 C           -3.08668410        1.59867133       -3.00774565
 C            0.13050962        2.66226817       -3.45510226
 C           -1.17683204        2.45889461       -4.05361247
 C            2.15973654        1.33158862       -3.36159691
 C            2.60564713       -0.04724256       -3.36748147
 C            1.59269632       -1.08821766       -3.40537910
 C            0.96229560        1.60985303       -3.99541271
 C           -0.71128672       -1.17988496       -2.71187191
 C           -1.94498975       -0.51845149       -2.60004780
 C           -2.29196458        0.48644504       -3.49564668
 C           -1.27411994        1.04005536       -4.35750271
 C            0.27149187       -0.70391214       -3.59405354
 C            0.06330619        0.49670918       -4.26915718
