   70
C70 / DATE: 7/ 1/2024 / Origin: Program Fullerene / C70 from database
 C            1.29395945       -0.00575858        4.29712349
 C            2.53663274       -0.29361182        3.62699039
 C            2.49904387       -1.69295846        3.24530853
 C            0.43567270       -1.17992106        4.17097023
 C            1.11035715       -2.11285989        3.30647121
 C           -0.87334775       -0.70332018        3.78816917
 C            0.50927038        1.12071923        3.84382644
 C           -0.86096452        0.71804183        4.06970758
 C            0.82090614        1.75858756        2.63786244
 C            2.87160456        0.46047842        2.43764125
 C            1.97881548        1.40633219        1.92469402
 C            3.19299657       -1.81618009        1.97838593
 C            3.50528752       -0.46967103        1.52080732
 C            2.69348309       -2.72056503        1.05628718
 C            0.49514714       -2.53818890        2.13265549
 C            1.30792364       -3.15120351        1.18771561
 C           -1.45182705       -1.13655853        2.59281102
 C           -0.73450790       -1.98341311        1.73016844
 C           -2.53578343       -0.40220453        2.10107636
 C           -1.84982081        1.48267771        3.49692272
 C           -2.87772360        0.78842128        2.75481916
 C           -0.19357105        2.48264944        2.00096101
 C           -1.43854766        2.56865490        2.62812564
 C           -0.07643305        2.78624881        0.64066735
 C            2.10718849        1.77636700        0.58315029
 C            1.15576339        2.62605261        0.01011168
 C            3.44685003       -0.18718153        0.16259944
 C            3.01320849        1.07833467       -0.22792117
 C            2.93681157       -2.47819769       -0.35206657
 C            3.41127359       -1.23865927       -0.76008525
 C            0.79739539       -3.40176965       -0.13743751
 C            1.84939850       -3.08941144       -1.09551735
 C           -1.23734832       -2.24970902        0.44453917
 C           -0.50602632       -3.05656033       -0.44618461
 C           -3.04076406       -0.67587732        0.82538978
 C           -2.45334017       -1.67311296        0.04333824
 C           -3.95684531        0.19545672        0.22356686
 C           -3.57582256        1.83542874        2.04195573
 C           -2.61261731        2.91252419        1.85014888
 C           -4.15234444        1.52437510        0.75945016
 C           -1.21673636        2.97302898       -0.15359922
 C           -2.46841555        3.11014806        0.42697044
 C           -3.59080531        2.45058205       -0.21202698
 C           -1.15467281        2.66901620       -1.50980599
 C            1.24635452        2.95841668       -1.34003640
 C            0.05529628        2.83514158       -2.15871019
 C            3.23021093        1.47572853       -1.54021768
 C            2.36104939        2.47127403       -2.12506439
 C            3.33783835       -0.94158705       -2.11541507
 C            3.44008756        0.44460616       -2.53604123
 C            1.49906968       -2.57228895       -2.34392215
 C            2.29735710       -1.57605861       -2.91470174
 C           -0.83678557       -3.08344952       -1.79274113
 C            0.17358706       -2.69541244       -2.76424416
 C           -2.90816708       -1.83077095       -1.26839091
 C           -2.09928085       -2.54494330       -2.22814292
 C           -3.91088949        0.37162542       -1.21292622
 C           -3.34572586        1.69230948       -1.43039171
 C           -2.10008766        1.79600177       -2.05123986
 C           -3.42942021       -0.67433695       -1.97085444
 C           -0.40990169       -1.64617813       -3.58444768
 C           -1.83389360       -1.63574117       -3.33596883
 C           -1.67563868        0.76288963       -2.89560648
 C           -2.46537215       -0.37835723       -3.01326767
 C            0.37775734        1.93999428       -3.25026577
 C            1.82262489        1.92035445       -3.36097645
 C            2.47974882        0.65948279       -3.60581539
 C            1.66700990       -0.53351509       -3.70963201
 C           -0.36138478        0.76416628       -3.38311213
 C            0.27783124       -0.44658344       -3.71461135
