   70
C70 / DATE: 7/ 1/2024 / Origin: Program Fullerene / C70 from database
 C            1.24711719       -0.00974000        5.58723592
 C            0.33634393       -1.13291808        5.71862319
 C            0.98913199       -2.29815374        5.14906100
 C            2.39765607       -0.45309763        4.81698383
 C            2.23875011       -1.86262863        4.54709436
 C            2.54059079        0.44344448        3.68582453
 C            0.57550153        1.01412652        4.80666676
 C            1.48171514        1.43048912        3.75325690
 C           -0.83930057       -0.84600397        4.91237692
 C           -0.72501347        0.50958141        4.40887719
 C            0.14591720       -2.79650096        4.07700778
 C           -0.99831371       -1.91482464        3.94464482
 C            2.23213567       -2.29271031        3.16190830
 C            0.98405933       -2.98398153        2.90798585
 C            2.84922841       -0.06536038        2.42763546
 C            2.69435804       -1.43891423        2.16462488
 C            2.73993635        0.81710261        1.35190904
 C            0.93107326        1.84348578        2.54541360
 C            1.73565414        1.79201186        1.40292883
 C           -1.13436710        0.75906969        3.10364708
 C           -0.44972047        1.72480168        2.37342548
 C           -1.39763234       -1.57653792        2.65642021
 C           -1.76469395       -0.25840112        2.38851641
 C            0.40770298       -2.79904014        1.65647429
 C           -0.90705814       -2.33203345        1.59663407
 C            2.44235255       -1.82225833        0.84652163
 C            1.25085472       -2.50831462        0.57951261
 C            3.17539333        0.36090939        0.11940288
 C            3.01599890       -1.05277668       -0.15128752
 C            2.80426847        1.07830842       -1.08100440
 C            1.20577964        2.32203211        0.21996974
 C            1.80405412        2.04034190       -1.01564735
 C           -0.97215750        2.08393090        1.14151428
 C           -0.12578394        2.72968687        0.25270075
 C           -2.21378620        0.03899415        1.09976718
 C           -2.02411519        1.33018222        0.61754903
 C           -1.44330669       -2.09552926        0.34123524
 C           -2.28626614       -0.99545296        0.17223058
 C            0.66860447       -2.44292683       -0.69241859
 C           -0.71964214       -2.53806646       -0.75595070
 C            2.54911406       -1.18485475       -1.51435058
 C            2.76914744        0.09948761       -2.14992318
 C            1.36372416       -1.86528323       -1.76348377
 C            2.04679555        0.39895563       -3.28857618
 C            1.15851281        2.42139045       -2.19768455
 C            1.37525707        1.68499318       -3.36666188
 C           -0.69725151        3.28351367       -0.87776315
 C            0.05619134        3.26531298       -2.11264007
 C           -2.48728163        1.64985037       -0.65990390
 C           -2.03764779        2.85111231       -1.20966467
 C           -2.75429048       -0.71931532       -1.11357298
 C           -2.92137067        0.61781413       -1.50646809
 C           -1.34975241       -2.50441328       -1.98603524
 C           -2.55109023       -1.70353646       -2.08179477
 C            0.70060462       -1.64041739       -2.97543843
 C            1.11843421       -0.59329201       -3.80291847
 C           -0.55983726       -2.19912348       -3.15897475
 C            0.31608855        1.54637407       -4.35742248
 C            0.15546493        0.12142177       -4.63028760
 C           -0.91168221        3.31649119       -3.19948732
 C           -2.23358742        3.13510082       -2.61509768
 C           -0.79013966        2.38605802       -4.30430773
 C           -3.33803158        0.91447004       -2.81048509
 C           -2.94980424        2.17268839       -3.41911146
 C           -2.11692990        1.85665560       -4.56960115
 C           -2.74548666       -1.40580985       -3.48459597
 C           -1.47053802       -1.64090122       -4.14874066
 C           -1.10657046       -0.42094309       -4.84179309
 C           -3.20449738       -0.08666067       -3.85173038
 C           -2.27656603        0.44053328       -4.84075677
