   70
C70 / DATE: 7/ 1/2024 / Origin: Program Fullerene / C70 from database
 C            1.32579806       -0.04971446        5.05257402
 C            0.56749556       -1.23895667        4.70516582
 C            1.48103980       -2.16751653        4.08717581
 C            2.59159910       -0.11722601        4.34185426
 C            2.73185413       -1.45931741        3.83345207
 C            2.62725515        0.98255641        3.40008351
 C            0.59785162        1.10019195        4.54547638
 C            1.48008219        1.83709222        3.66880425
 C           -0.59605373       -0.81756541        3.95291988
 C           -0.65110142        0.63331294        3.98828291
 C           -0.93409403       -1.45662799        2.76040446
 C            1.09336821       -2.79392514        2.83756159
 C           -0.11765968       -2.46165890        2.21986987
 C            3.03771197       -1.64069522        2.42756040
 C            2.29201087       -2.81581674        2.02696490
 C            2.99788253        0.76629122        2.07034023
 C            3.06753350       -0.54123890        1.56076517
 C            2.79501664        1.82523089        1.19336898
 C            0.91985617        2.51842776        2.59500937
 C            1.76315542        2.79418516        1.52369453
 C           -1.14620602        1.28573151        2.86711665
 C           -0.45534735        2.38797425        2.35431823
 C           -1.83419021       -0.81279360        1.92232489
 C           -1.98586621        0.57370374        2.01575590
 C           -2.26454953       -1.46512261        0.78000909
 C           -0.28881700       -2.83048739        0.87563633
 C           -1.38596061       -2.34919057        0.14970982
 C            2.14292573       -3.05152653        0.67845694
 C            0.80896018       -3.32959370        0.18075802
 C            2.90635041       -0.77889235        0.18594685
 C            2.70906622       -2.08699418       -0.24371179
 C            2.72317586        1.58066692       -0.23313064
 C            2.65085786        0.27500561       -0.69863838
 C            1.20970878        3.30142323        0.28415993
 C            1.84622530        2.58543550       -0.80897841
 C           -1.01581679        3.06276992        1.27218947
 C           -0.14860257        3.56127910        0.21618022
 C           -2.66898883        1.26171582        1.01329811
 C           -2.21257453        2.52154243        0.64064617
 C           -3.31476708       -0.89784427        0.07581530
 C           -3.46400777        0.54465311        0.12421625
 C           -3.57946330       -1.33386995       -1.27591601
 C           -1.43725846       -2.52321682       -1.24648139
 C           -2.57016045       -2.11871198       -1.95250379
 C            0.87991976       -3.13826971       -1.24971845
 C            2.05721247       -2.32239456       -1.51114801
 C           -0.27678557       -2.84820069       -1.95788493
 C            2.06731012        0.03174918       -1.95343424
 C            1.92953144       -1.28501864       -2.41914705
 C            1.10049195        2.25065153       -1.93110478
 C            1.43385417        1.08919498       -2.62845426
 C           -0.83433101        3.37382332       -1.04828937
 C           -2.17020566        2.87588248       -0.76939405
 C           -0.14736663        2.85251327       -2.13695536
 C           -3.60695428        1.01516965       -1.24528072
 C           -3.84510569       -0.15060470       -2.07941959
 C           -2.78697606        2.04614716       -1.70432681
 C           -2.42261283       -1.56868315       -3.28990505
 C           -3.11643035       -0.28522244       -3.32333390
 C           -0.09980179       -2.33740895       -3.24302182
 C            1.08841392       -1.53833168       -3.49535228
 C           -1.21010095       -1.72401846       -3.94827983
 C            0.89089978        0.89225429       -3.89403757
 C            0.72362673       -0.45744501       -4.37826253
 C           -0.67306808       -0.63357483       -4.74635393
 C           -0.90846443        2.47112910       -3.23464358
 C           -2.26749151        2.00156045       -3.00233524
 C           -2.48436196        0.83498601       -3.84820786
 C           -0.30720497        1.62621969       -4.24621575
 C           -1.30929427        0.66720537       -4.68399917
