   70
C70 / DATE: 7/ 1/2024 / Origin: Program Fullerene / C70 from database
 C            1.22353798       -0.03320963        4.73084971
 C            2.40653016       -0.46516236        4.02282897
 C            2.20620008       -1.86165618        3.66001762
 C            0.38543517       -1.20761158        4.90009639
 C            0.81431894       -2.16263847        3.89334118
 C           -0.98629273       -0.75380743        4.88280875
 C            0.39036263        0.98309705        4.12182933
 C           -0.97288551        0.64773185        4.47506647
 C            0.65690854        1.40023042        2.81815515
 C            2.77664445        0.22619037        2.80423214
 C            1.90416952        1.14278230        2.23254997
 C            2.71738350       -2.02681768        2.32339336
 C            3.35394819       -0.77784207        1.94261586
 C            1.92570802       -2.65201956        1.36970608
 C           -0.01757532       -2.43885739        2.80120225
 C            0.52961246       -2.58458626        1.51417632
 C           -1.91553595       -1.44620872        4.01594171
 C           -1.39308791       -2.29487572        2.95219890
 C           -2.00639287        0.82249351        3.47427231
 C           -2.72779420       -0.42837397        3.38500326
 C           -0.39230944        1.87923888        2.02232308
 C           -1.70469077        1.47300113        2.28047009
 C           -0.09864377        2.43172819        0.77393552
 C            2.09057665        1.46851436        0.89500676
 C            1.21797378        2.37366806        0.31209551
 C            3.44948197       -0.52048691        0.58143540
 C            2.91832512        0.67815970        0.07959297
 C            2.47130706       -2.69060716        0.09680366
 C            3.42179077       -1.64187351       -0.23653413
 C            1.60099493       -2.83598970       -1.04553305
 C           -0.29511443       -2.45170333        0.37473246
 C            0.26163959       -2.49682711       -0.90884256
 C           -2.21585363       -2.06203675        1.78244362
 C           -3.04979606       -0.90698935        2.06189918
 C           -1.65553025       -2.15903537        0.50939144
 C           -2.55561836        1.26981611        1.19570711
 C           -3.16621023        0.01885554        1.04495900
 C           -1.14270297        2.69031225       -0.12357740
 C           -2.37383783        2.05232767        0.05290211
 C           -0.86805021        3.33981459       -1.32591901
 C            1.54526928        2.89017707       -0.92968848
 C            0.51269051        3.51719819       -1.72694942
 C            2.95447166        0.92335709       -1.30419193
 C            2.36791483        2.08186866       -1.80849311
 C            3.39220507       -1.46480990       -1.66577253
 C            2.34292201       -2.33026529       -2.17957664
 C            3.15862870       -0.13474114       -2.18714246
 C            1.62576473       -1.58241226       -3.17922196
 C            2.26787436       -0.28469174       -3.32356859
 C           -0.44087985       -1.95955016       -2.00212584
 C            0.24330201       -1.62082343       -3.18730809
 C           -2.31660334       -1.51783502       -0.54545737
 C           -3.22369005       -0.49609498       -0.23273325
 C           -1.78607942       -1.60040478       -1.83634591
 C           -3.16039396        1.75696915       -1.06420393
 C           -3.61628466        0.38998975       -1.21574501
 C           -1.62305530        2.99362129       -2.51700062
 C           -2.78407486        2.24512179       -2.38030583
 C            0.65143531        3.03642350       -3.09247867
 C            1.70367444        2.03397448       -3.10538734
 C            1.48664400        0.79931130       -3.72102249
 C           -0.66732706        2.68041506       -3.57445164
 C           -0.35737862       -0.77264280       -4.10255315
 C            0.25481016        0.52850416       -4.32693011
 C           -0.81155241        1.51955493       -4.32344056
 C           -2.49725349       -1.03062383       -2.89448691
 C           -3.45966925        0.00652504       -2.59591519
 C           -3.08668514        1.19655491       -3.34184144
 C           -1.78687017       -0.60673777       -4.07889738
 C           -2.07473656        0.80332096       -4.30034163
