   70
C70 / DATE: 7/ 1/2024 / Origin: Program Fullerene / C70 from database
 C            1.48888007        0.14697843        4.98384462
 C            0.72431254       -1.08380838        5.06681988
 C            1.54671450       -2.14049129        4.51188712
 C            2.62482782       -0.09663657        4.10822522
 C            2.70081414       -1.51742331        3.87398744
 C            2.49831777        0.78554289        2.96474576
 C            0.65153876        1.14338915        4.34278032
 C            1.39472640        1.68843393        3.22665674
 C           -0.58811539       -0.83850285        4.49056060
 C           -0.63825800        0.54819484        4.05547204
 C           -1.17677983       -1.81286720        3.69582644
 C            0.95761285       -3.05289279        3.54755756
 C           -0.40541669       -2.97514090        3.26992604
 C            2.74697261       -1.99137852        2.50511891
 C            1.90053110       -3.16690036        2.44806068
 C            2.64060509        0.29232662        1.66463140
 C            2.72168121       -1.08994999        1.43479966
 C            2.22531812        1.12139057        0.62035913
 C            0.67927176        2.12990020        2.12656443
 C            1.34034929        2.16026762        0.90733728
 C           -1.23560160        0.86842386        2.83764091
 C           -0.69905674        1.92302592        2.09473699
 C           -2.00968916       -1.40288733        2.57834587
 C           -2.03135045       -0.07189486        2.17864743
 C           -0.88558931       -3.36262187        1.95287883
 C           -1.93251596       -2.43112610        1.55905055
 C            1.44774107       -3.57898674        1.20689272
 C            0.02233554       -3.79528746        0.99741753
 C            2.43883010       -1.58991547        0.15842836
 C            1.94385714       -2.88579630        0.03242852
 C            2.30785533        0.66094671       -0.68893802
 C            2.29646613       -0.71618590       -0.92050842
 C            1.98268375        1.53353430       -1.72815729
 C            0.69487932        2.79752638       -0.14333504
 C            1.20978978        2.66285785       -1.43012667
 C           -1.37461691        2.34106744        0.95200733
 C           -0.65786807        3.09196396        0.02316887
 C           -2.48121355        0.23141144        0.89634077
 C           -2.43175362        1.55862655        0.49115095
 C           -2.05449080       -2.05648239        0.22223740
 C           -2.52594170       -0.77325602       -0.07973926
 C           -0.25018689       -3.51826234       -0.40069070
 C            1.01191857       -3.17417971       -1.03537037
 C           -1.38457932       -2.79440647       -0.75847266
 C            1.80961571       -1.20981236       -2.13794114
 C            0.97343553       -2.32858489       -2.13306434
 C            2.04458590        1.04500181       -3.03033887
 C            1.78992699       -0.36443316       -3.24352829
 C            1.40943689        1.76561790       -4.11607047
 C            0.66683739        3.45081989       -2.44446882
 C            0.72843878        3.00619101       -3.82129869
 C           -1.35750264        3.69715267       -1.01231598
 C           -0.65613163        4.01214619       -2.24378180
 C           -3.04492319        1.90071539       -0.70687452
 C           -2.64195206        3.13031838       -1.36881405
 C           -2.79106590       -0.43160422       -1.41057358
 C           -3.17289922        0.87157716       -1.72257050
 C           -1.46554761       -2.38010206       -2.08236065
 C           -0.22655214       -2.26587397       -2.83297999
 C           -2.28341200       -1.23319408       -2.42548608
 C            0.68328036       -0.46028916       -4.18561254
 C            0.43784185        0.86565635       -4.71680187
 C           -0.40574453       -1.24558622       -3.84537126
 C           -1.69485586       -0.60971901       -3.60347459
 C           -0.64268418        2.87409592       -4.28980818
 C           -1.49240331        3.58122281       -3.35498827
 C           -2.63502891        2.88593028       -2.79974189
 C           -2.75621530        1.45090145       -2.99382234
 C           -0.87392283        1.45954836       -4.52857514
 C           -1.83836488        0.76377602       -3.79053208
