   70
C70 / DATE: 7/ 1/2024 / Origin: Program Fullerene / C70 from database
 C            1.34209067       -0.09236163        4.51857279
 C            2.59479058       -0.26079558        3.80667090
 C            2.53877144       -1.53099080        3.10490486
 C            0.49313835       -1.23138416        4.20305784
 C            1.20403594       -2.07309811        3.25810044
 C           -0.81470768       -0.72405346        3.82815851
 C            0.56219602        1.11324801        4.30065045
 C           -0.81518876        0.70746265        4.07341497
 C            1.10216699        2.15880512        3.55770734
 C            3.00860962        0.75413288        2.85367215
 C            2.34996364        1.97461389        2.82336821
 C            3.03708847       -1.32070851        1.76056839
 C            3.32574989        0.09299124        1.59729051
 C            2.41905376       -1.97659839        0.70935965
 C            0.53616773       -2.50697074        2.11863699
 C            1.26441354       -2.72806760        0.94775600
 C           -1.42028610       -1.22008792        2.67590108
 C           -0.83940847       -2.30965610        2.02617820
 C           -2.37512245       -0.44557748        2.00783600
 C           -1.65286541        1.51229022        3.31535273
 C           -2.56842673        0.88437951        2.38040092
 C            0.22732831        2.99682396        2.75110624
 C           -1.12496553        2.70614021        2.66764228
 C            2.22510333        2.67100298        1.55781425
 C            0.94800207        3.36454744        1.54652084
 C            3.00157515        0.71131902        0.38567800
 C            2.66461311        2.07035489        0.37974699
 C            2.62663965       -1.47707120       -0.56634028
 C            2.71467546       -0.09121444       -0.73145389
 C            2.25036043       -2.27917611       -1.63207996
 C            0.62989923       -3.33607976       -0.13865054
 C            1.27994936       -3.32752419       -1.37232779
 C           -1.51898112       -2.90311947        0.97481188
 C           -0.75243655       -3.52747150       -0.09064126
 C           -2.92923931       -0.90642659        0.81024833
 C           -2.62687407       -2.18871433        0.36672739
 C           -3.48824748        0.00066115       -0.08751112
 C           -2.87029698        1.86901640        1.35996663
 C           -1.80190234        2.85213389        1.38958506
 C           -3.33679133        1.42863136        0.13546972
 C            0.28196398        3.48958506        0.33008802
 C           -1.06410040        3.09856542        0.22998797
 C            2.27815160        2.66875015       -0.81322326
 C            1.08142052        3.49719419       -0.80727151
 C            2.28952295        0.49673260       -1.92830716
 C            2.24900107        1.87935499       -2.02649986
 C            1.89742303       -1.66018187       -2.89236467
 C            1.68300924       -0.28527948       -2.91846618
 C            0.52199038       -3.53748497       -2.59342954
 C            0.97672940       -2.55719603       -3.56718739
 C           -1.55117159       -3.43998381       -1.30484697
 C           -2.61312646       -2.47257516       -1.06173155
 C           -0.92649592       -3.48077005       -2.54229903
 C           -3.36078637       -0.23367426       -1.51709297
 C           -2.85664355       -1.44539541       -1.97503564
 C           -2.77930276        1.99994558       -1.07708435
 C           -1.63115156        2.78415723       -1.01572721
 C           -2.90762545        1.00642955       -2.13324210
 C            0.46848633        3.39923272       -2.11016510
 C            1.26961239        2.48157731       -2.90370272
 C           -0.90831807        2.96879073       -2.18775304
 C            0.67284519        0.25907802       -3.73180778
 C           -1.96355088        0.96159727       -3.15928090
 C            0.36334930        1.60676348       -3.61360295
 C           -0.99722171        1.96764180       -3.24031165
 C           -0.18947315       -1.99576760       -4.20745495
 C           -1.36969850       -2.57202970       -3.58190903
 C           -2.26616321       -1.48155031       -3.23385762
 C           -0.34949580       -0.55753597       -4.20070079
 C           -1.70982246       -0.25737823       -3.78959178
