   70
C70 / DATE: 7/ 1/2024 / Origin: Program Fullerene / C70 from database
 C            0.95033274        0.00790102        4.85502191
 C            2.28910356       -0.30580895        4.41742436
 C            2.31661188       -1.73304781        4.13972148
 C            0.16622840       -1.21748180        4.76097640
 C            0.93770690       -2.13634690        3.95238536
 C           -1.15621355       -0.84586218        4.31361987
 C            0.21174102        1.02423174        4.13773451
 C           -1.16727164        0.59987407        4.18616294
 C            0.69963048        1.52926831        2.92849128
 C            2.79878885        0.35356113        3.23191361
 C            1.93003615        1.08834568        2.42007915
 C            3.24087960       -1.92798596        3.04595798
 C            3.67735625       -0.60865864        2.61007968
 C            2.77440071       -2.62293301        1.86255864
 C            0.50006185       -2.46806615        2.66597273
 C            1.42945923       -2.96354625        1.73944395
 C           -1.63910101       -1.37356714        3.05313867
 C           -0.79498394       -2.11657353        2.23896161
 C           -1.99441979        0.91652789        3.04855235
 C           -2.42612329       -0.32428488        2.43829607
 C           -0.19597321        2.16218892        2.06530426
 C           -1.57004303        1.90327299        2.18220179
 C            0.28346106        2.66505842        0.85300210
 C            2.20157945        1.21553634        1.04536370
 C            1.36610055        2.01652441        0.25001249
 C            3.73804538       -0.63499364        1.16784584
 C            3.42886139       -1.98832595        0.73539317
 C            3.18710063        0.41272709        0.44566815
 C            2.88714162       -2.16041442       -0.53651546
 C            0.98945932       -3.35544834        0.48221982
 C            1.80798550       -3.03109278       -0.68028838
 C           -1.14451422       -2.26270364        0.89906713
 C           -0.39233495       -3.11906847        0.11819707
 C           -2.58839139       -0.32048412        1.05225945
 C           -2.02211058       -1.34910807        0.29231252
 C           -2.33727336        2.07104836        1.04749941
 C           -2.82280431        0.90841199        0.42999866
 C           -0.59966344        3.40198032        0.06273170
 C           -2.01362660        3.16021674        0.26438503
 C           -0.39614303        3.44364835       -1.37090894
 C            1.44893942        1.95289887       -1.15074497
 C            0.43226060        2.48538009       -1.93918134
 C            3.17018214        0.23972424       -0.92807401
 C            3.03534772       -1.11415699       -1.44464128
 C            2.36630295        1.11124582       -1.74983840
 C            2.20511249       -1.05068491       -2.63680530
 C            1.95691557        0.35861482       -2.91762308
 C            0.91108767       -2.89981376       -1.81733576
 C           -0.45213222       -3.00430634       -1.31858791
 C            1.18096845       -1.97731794       -2.82604566
 C           -2.12693353       -1.29115860       -1.10690459
 C           -1.42169106       -2.20834681       -1.90488881
 C           -3.11078303        0.92312200       -0.93551166
 C           -2.79646885       -0.20717486       -1.70392471
 C           -2.68705353        3.32045862       -1.00030073
 C           -1.68538883        3.73607654       -1.96488678
 C           -3.33943596        2.15699147       -1.55247213
 C           -2.02862081        3.11166867       -3.22162916
 C           -3.21009384        2.29047995       -2.98718491
 C            0.09362513        1.86414787       -3.15674028
 C            0.78265566        0.71355459       -3.56795074
 C           -1.05274472        2.25327575       -3.85735566
 C            0.13541492       -1.63696669       -3.68150181
 C           -1.22226764       -1.92387645       -3.24731745
 C            0.09762132       -0.29828622       -4.23651004
 C           -2.96968236       -0.17978339       -3.09064659
 C           -3.06266889        1.09255039       -3.77803091
 C           -1.83273141        1.24079435       -4.53971544
 C           -2.10323342       -0.99245141       -3.91119292
 C           -1.26558510       -0.08118080       -4.67869902
