   70
C70 / DATE: 7/ 1/2024 / Origin: Program Fullerene / C70 from database
 C            1.42966404       -0.08572299        4.57572901
 C            2.66972351       -0.18214636        3.83091356
 C            2.62116893       -1.39886185        3.03656696
 C            0.59207030       -1.20698407        4.19351431
 C            1.33928760       -2.03436227        3.25872098
 C           -0.69872689       -0.68651023        3.76640124
 C            0.63926147        1.12211560        4.44490083
 C           -0.66241574        0.75344490        3.89745337
 C            1.25432190        2.27223525        3.97094818
 C            3.04146867        0.91327117        2.95123688
 C            2.42594417        2.14850994        3.10465376
 C            2.98632891       -1.06461257        1.67543269
 C            3.20274505        0.37063303        1.61236992
 C            2.29768001       -1.67076132        0.63032210
 C            0.65374709       -2.53977344        2.16141185
 C            1.28874521       -2.59333599        0.91479170
 C           -1.27921263       -1.24923511        2.64117153
 C           -0.73070158       -2.43654363        2.17772021
 C           -1.97183872       -0.44006535        1.73347966
 C           -1.23864298        1.55175683        2.91072272
 C           -1.80684458        0.94873064        1.77214694
 C            0.40559660        3.29741555        3.39895612
 C           -0.90052581        2.90304176        2.90030824
 C            2.17363009        2.95147528        1.92188975
 C            1.12592822        3.88369339        2.28394868
 C            2.70939773        1.06545614        0.50999685
 C            2.14980522        2.33825830        0.66555629
 C            2.27765579       -1.02987079       -0.60006388
 C            2.45943158        0.35630896       -0.65835270
 C            1.73205222       -1.69699064       -1.68985468
 C            0.58174437       -3.17160897       -0.14736795
 C            0.85797987       -2.76590576       -1.46456414
 C           -1.43039901       -3.13157282        1.21725533
 C           -0.66038549       -3.73477348        0.15448814
 C           -2.52328816       -1.04728697        0.59912314
 C           -2.52111182       -2.44068998        0.56385075
 C           -2.61679805       -0.31968963       -0.59703713
 C           -2.12199081        1.70783352        0.63489212
 C           -2.37319279        1.05791867       -0.57921912
 C           -1.14118872        3.68883481        1.71677518
 C            0.14332419        4.23191653        1.28684395
 C           -1.73964814        3.04655330        0.56800176
 C            1.38377136        2.89216362       -0.37477797
 C            0.34816455        3.77916183       -0.07154872
 C           -0.96855762        3.47263314       -0.57994910
 C            2.04400997        1.05344682       -1.78372698
 C            1.30500609        2.22459044       -1.60386049
 C            1.78761128       -1.08029103       -2.93803850
 C            1.95082527        0.36252902       -2.98702358
 C            0.85958747       -1.46805192       -3.98754628
 C            0.10610082       -3.27564325       -2.52747604
 C           -0.05029011       -2.48634820       -3.73572972
 C           -1.61078632       -4.02327044       -0.89702990
 C           -2.74925959       -3.13561610       -0.68330593
 C           -1.18659371       -3.87506525       -2.26783289
 C           -2.85481679       -0.96965493       -1.82331520
 C           -1.48107848       -2.23996527       -3.91068868
 C           -2.92020353       -2.35971070       -1.88534589
 C           -2.17722255       -3.04546030       -2.92832373
 C           -2.64694363       -0.28281967       -3.01833458
 C           -1.92471521       -0.93930073       -4.10340762
 C           -2.02685786        1.71930155       -1.76286485
 C           -1.03433612        2.68744832       -1.70876705
 C            0.15449112        2.42484028       -2.37612390
 C           -2.23786581        1.10410632       -2.98626685
 C            1.07060163        0.87384897       -4.01732215
 C            0.40688956       -0.25540510       -4.64822582
 C           -1.01466377        0.02670415       -4.68595855
 C            0.05962290        1.83541607       -3.63034633
 C           -1.23428172        1.29831305       -4.02289786
