   70
C70 / DATE: 7/ 1/2024 / Origin: Program Fullerene / C70 from database
 C            1.24170148       -0.13351575        4.96368655
 C            2.54165774       -0.46343069        4.42515478
 C            2.38287086       -1.68215139        3.63514431
 C            0.40323207       -1.29876924        4.76372114
 C            0.97636272       -2.02783602        3.65121610
 C           -0.94617043       -0.80864119        4.62938400
 C            0.51820253        0.98808886        4.38658034
 C           -0.87533794        0.64505204        4.50096071
 C            0.98966288        1.56956001        3.20800424
 C            3.17898502        0.51517883        3.57276104
 C            2.36312010        1.57365702        2.99376576
 C            3.02931668       -1.46102938        2.35711619
 C            3.75522426       -0.21847343        2.46584257
 C            2.32085876       -1.68383686        1.18013024
 C            0.27935655       -2.08336819        2.44314380
 C            0.98565822       -2.10058214        1.23705339
 C           -1.73408277       -1.26604981        3.50626507
 C           -1.11045380       -1.90273425        2.42866474
 C           -1.76841806        1.00945793        3.42551916
 C           -2.60569850       -0.15406706        3.21598514
 C            0.11502745        1.81254888        2.12911011
 C           -1.27235332        1.67089912        2.29989260
 C            0.62751063        2.17081819        0.86559998
 C            2.86715570        1.79375107        1.66148523
 C            3.71471644        0.65825078        1.32241905
 C            2.01506794        2.26841720        0.67137609
 C            2.79602243       -1.10484575       -0.00423824
 C            3.51664335        0.09862330        0.07107104
 C            2.17770397       -1.46035282       -1.20981509
 C            0.29438033       -2.27030843        0.04419261
 C            1.00437199       -2.21968072       -1.15026173
 C           -1.79619316       -1.92912986        1.20839254
 C           -1.09868298       -2.16511783        0.02192518
 C           -3.31780371       -0.20580699        2.04233106
 C           -3.04197092       -1.30738910        1.13925473
 C           -2.11346759        1.73462742        1.18684168
 C           -3.27957822        0.96668355        1.20165316
 C           -0.24205675        2.26981291       -0.23786774
 C           -1.62325441        2.19112243       -0.03752116
 C            0.26745149        2.40311972       -1.54162998
 C            2.51358615        2.18055005       -0.62188392
 C            3.33332546        1.02248373       -0.93906164
 C            1.63764203        2.40364362       -1.74570240
 C            2.48399002       -0.74372464       -2.37465535
 C            2.94510054        0.55845343       -2.24519221
 C            2.18354961        1.63455911       -2.84988026
 C            1.88425961       -1.09488587       -3.58017429
 C            0.35568336       -2.59238353       -2.31838687
 C            0.88486935       -2.14275296       -3.58792040
 C           -1.76861420       -2.09766271       -1.20828469
 C           -1.09099255       -2.48064802       -2.36558278
 C           -3.55762548       -0.89191648       -0.15226009
 C           -3.85045337        0.53529583       -0.05095420
 C           -2.96142987       -1.37208960       -1.31276885
 C           -2.48658119        2.21961334       -1.13774009
 C           -3.63713635        1.32646679       -1.16050830
 C           -0.56445225        2.22701534       -2.64956649
 C           -1.93970249        2.25840529       -2.48087007
 C            1.35746569        1.32550356       -3.91577850
 C            1.41137593       -0.02699381       -4.44822758
 C           -0.04252902        1.70631832       -3.83992569
 C           -0.23018865       -1.70143114       -4.41009029
 C           -1.44925581       -1.88273773       -3.64249976
 C            0.08273359       -0.37916926       -4.91569531
 C           -0.80818534        0.71941200       -4.58945837
 C           -3.27509478       -0.72547801       -2.50809850
 C           -3.65747378        0.67308412       -2.45181862
 C           -2.76263774        1.40445928       -3.32119659
 C           -2.42443369       -0.89445763       -3.67005714
 C           -2.10353384        0.43851516       -4.18007114
