   70
C70 / DATE: 7/ 1/2024 / Origin: Program Fullerene / C70 from database
 C            1.68030492        0.01978500        4.48530330
 C            0.83410047       -1.16005703        4.45977894
 C            1.30769096       -2.03600506        3.40087988
 C            2.60770536       -0.07608962        3.37304703
 C            2.42073836       -1.36618250        2.74967758
 C            2.45208652        1.10458967        2.54674460
 C            0.83302422        1.17227017        4.24636939
 C            1.38839069        1.90648098        3.12537603
 C           -0.54613830       -0.71737735        4.41956938
 C           -0.53758410        0.71119669        4.14019848
 C           -1.46143952       -1.51870858        3.75926229
 C            0.36748491       -2.70629959        2.61165885
 C           -0.97150082       -2.66518998        3.00846972
 C            0.69689139       -3.02418954        1.28110574
 C            2.50066720       -1.45020774        1.37363579
 C            1.91023120       -2.54343442        0.76584408
 C            2.49121624        0.96209459        1.15887258
 C            2.72899415       -0.29993830        0.60890476
 C            1.88056962        1.93891290        0.36840922
 C            0.51437263        2.52986678        2.24967742
 C            0.98551965        2.82571392        0.97475449
 C           -1.31436674        1.22010922        3.10131041
 C           -0.86230655        2.35606910        2.42966069
 C           -2.47575872       -0.88825775        2.93543942
 C           -2.27566786        0.41225093        2.48496820
 C           -2.00872546       -3.01104638        2.06194613
 C           -2.93263163       -1.88896938        1.98962166
 C           -0.28379404       -3.54261667        0.41311493
 C           -1.62386857       -3.34646099        0.71313398
 C            0.01278651       -3.70253783       -0.93510905
 C            2.28316798       -2.81647258       -0.53812438
 C            1.38088195       -3.56917822       -1.37363473
 C            2.80117509       -0.43115953       -0.77841650
 C            2.81520957       -1.71846958       -1.32713089
 C            1.90725696        1.80740536       -1.02554584
 C            2.49185121        0.66309692       -1.59202348
 C            1.26167598        2.76254286       -1.82990419
 C            0.23848728        3.69502893        0.19740045
 C            0.35229324        3.63974609       -1.24421640
 C           -1.72618557        2.95868969        1.52329890
 C           -1.16491198        3.84719543        0.52284251
 C           -2.77153380        0.77908396        1.23114645
 C           -2.70466764        2.11409804        0.86011015
 C           -3.06812265       -1.51503414        0.59238414
 C           -2.41602294       -2.53728737       -0.19903328
 C           -2.89687483       -0.18779450        0.23262080
 C           -0.83425427       -3.01722678       -1.90243938
 C           -1.85317018       -2.19851014       -1.42699684
 C            1.37213627       -2.95337597       -2.68725697
 C            2.40294759       -1.92997118       -2.70572561
 C            0.00607929       -2.55939687       -2.99187338
 C            2.50117273        0.48697391       -2.97363588
 C            2.19311069       -0.82358516       -3.50947273
 C            1.14883579        2.56058219       -3.20303386
 C            1.80914548        1.43530990       -3.81970609
 C           -0.16949167        2.65886749       -3.80249070
 C           -0.99182666        3.74030044       -1.80422120
 C           -1.92219959        3.66599501       -0.69984383
 C           -2.70392226        2.45437847       -0.55294680
 C           -1.27774784        2.99142235       -2.93354027
 C           -2.50838633        0.11513624       -1.07270994
 C           -1.91726648       -0.87407560       -1.87520870
 C           -2.55601746        1.44387479       -1.50254528
 C           -2.07779088        1.77921737       -2.76953960
 C           -0.20409964       -1.29995439       -3.53993138
 C            0.89418878       -0.68350910       -4.13995923
 C            0.80113279        0.69343120       -4.57037062
 C           -0.46216588        1.37625021       -4.40868888
 C           -1.26056749       -0.51458706       -3.05728311
 C           -1.49251532        0.74519008       -3.60397933
