   70
C70 / DATE: 7/ 1/2024 / Origin: Program Fullerene / C70 from database
 C            1.11422317        0.18255507        5.45084487
 C            0.42121377       -1.03016458        5.05407551
 C            1.41322282       -1.94654353        4.54334636
 C            2.46966407        0.10823057        4.92548873
 C            2.64119175       -1.19791685        4.32417503
 C            2.68616608        1.27888460        4.10412619
 C            0.45258833        1.30194018        4.80430221
 C            1.46783750        2.07675141        4.13259070
 C           -0.68049527       -0.66089232        4.17994909
 C           -0.64401008        0.78107153        4.01054172
 C           -0.96483765       -1.44522554        3.05928725
 C            1.11041456       -2.63563379        3.31035520
 C           -0.17634185       -2.57468856        2.78866841
 C            2.96689583       -1.30013717        2.90645863
 C            2.21324415       -2.42111455        2.38884846
 C            3.05074267        1.11169236        2.70614585
 C            3.08102537       -0.15766005        2.12056795
 C            1.20933409        2.50339555        2.77162061
 C            2.38324679        2.18174089        1.99113912
 C           -0.88111854        1.29195906        2.73683353
 C           -0.02900749        2.25954035        2.18463360
 C           -1.68866492       -0.85541127        2.01373075
 C           -1.66598463        0.53365073        1.87270163
 C           -2.10545657       -1.64308942        0.93797535
 C           -0.34080975       -3.20374917        1.56576707
 C           -1.48895833       -2.87540237        0.75257884
 C            1.92586528       -2.48467532        1.02824768
 C            0.80810911       -3.22895219        0.67100560
 C            2.85506316       -0.25458291        0.74532423
 C            2.31045471       -1.42806176        0.19548547
 C            2.20880321        2.03822334        0.62564497
 C            2.78324546        0.93099738        0.01558018
 C           -0.12892712        2.50680487        0.81494395
 C            1.04303991        2.55156561        0.05967262
 C           -2.04633333        1.09409496        0.66239073
 C           -1.30603061        2.16620229        0.16630072
 C           -2.75496594       -1.04709539       -0.15070182
 C           -2.83505591        0.34761551       -0.20710491
 C           -2.89827604       -1.79290662       -1.32381848
 C           -1.14186458       -3.28924901       -0.59076516
 C            0.30108378       -3.15560751       -0.68474141
 C           -1.90630078       -2.80520359       -1.63007181
 C            1.91568292       -1.43168376       -1.15144845
 C            0.83590308       -2.22054870       -1.56653546
 C            2.71374061        0.86204487       -1.36470556
 C            2.36310925       -0.40638768       -1.97392213
 C            0.94285795        2.54401473       -1.33132223
 C            1.93464556        1.87609711       -2.04770541
 C           -1.45987141        2.53189700       -1.16630976
 C           -0.30381220        2.74000804       -1.93289454
 C           -3.32415730        0.97923906       -1.34931512
 C           -2.66461752        2.19696086       -1.77752179
 C           -3.20310260       -1.12495860       -2.57744176
 C           -3.60604919        0.20081689       -2.54193268
 C           -1.22146872       -2.33511683       -2.81495690
 C            0.08726726       -1.86464589       -2.69826604
 C           -2.19598949       -1.55383786       -3.54676658
 C            1.65827374       -0.11198586       -3.21161286
 C            1.62347045        1.33856786       -3.35460244
 C            0.53536830       -0.85834256       -3.56065994
 C           -0.36703700        2.73108428       -3.32963310
 C            0.58201600        1.90966692       -4.06507090
 C           -2.81627979        2.31015266       -3.21289615
 C           -3.35949375        1.04963549       -3.69631417
 C           -1.64880952        2.62754849       -4.00256782
 C           -1.73998925       -0.66670811       -4.50802543
 C           -0.31944552       -0.35370875       -4.54756409
 C           -0.19235745        1.04288911       -4.92710239
 C           -2.47975097        0.56172045       -4.74064442
 C           -1.52333962        1.61262800       -5.03640713
