   70
C70 / DATE: 7/ 1/2024 / Origin: Program Fullerene / C70 from database
 C            1.49500594       -0.15947253        4.27440635
 C            2.62655117       -0.34485806        3.37852814
 C            2.35463814       -1.53484833        2.59075310
 C            0.64134235       -1.32487684        4.15565543
 C            1.30615124       -2.26980625        3.27932604
 C           -0.68964232       -0.87166739        3.78931178
 C            0.65940993        1.01811833        4.11102527
 C           -0.62671542        0.56671811        3.60278158
 C            1.23253808        2.15310253        3.56316496
 C            3.15187180        0.77124380        2.74724755
 C            2.60876441        2.07198683        3.09715301
 C            3.31268713        0.74789647        1.30150998
 C            2.32918777       -1.45399421        1.19641951
 C            2.73376048       -0.27662365        0.56211597
 C            1.63797962       -2.42711172        0.47034697
 C            0.50875942       -3.12055750        2.53484076
 C            0.86788419       -3.36949268        1.15428799
 C           -1.41052302       -1.62833205        2.87597259
 C           -0.92692345       -2.89171890        2.53203878
 C           -2.27051040       -0.97722913        1.99438704
 C           -1.14618439        1.11981358        2.43240478
 C           -2.02432103        0.36228298        1.65334647
 C            0.49025995        2.89715511        2.56172274
 C           -0.59580595        2.29769090        1.91606197
 C            2.72939757        2.92589169        1.93265919
 C            3.19806286        2.11257057        0.82116720
 C            1.47034438        3.63017680        1.77711016
 C            2.64443825        2.34980585       -0.43318213
 C            2.35903885       -0.04026604       -0.75885741
 C            2.35510967        1.26610182       -1.27447187
 C            1.46982762       -2.27621911       -0.90769332
 C            1.90362054       -1.10545385       -1.53249264
 C            0.61987805       -3.14701338       -1.59045678
 C           -0.31686917       -3.92125099        0.51972202
 C           -1.45675741       -3.56357013        1.35463149
 C           -0.42093563       -3.84495610       -0.85974101
 C           -3.09267661       -1.76107679        1.19228365
 C           -2.61032833       -3.06316758        0.76573779
 C           -3.78234646       -1.15707798        0.07489903
 C           -2.47789660        0.88257259        0.43680791
 C           -3.40830078        0.18292043       -0.32132486
 C           -0.95643639        2.73595285        0.63787283
 C           -1.79149927        1.94054892       -0.15480522
 C            1.11817543        4.01685976        0.49844219
 C            1.94058653        3.54120890       -0.59910312
 C           -0.24568505        3.78940560        0.06785656
 C            1.15655036        3.73928025       -1.79646245
 C           -0.22486584        3.93517929       -1.37087634
 C            1.83585355        1.50883321       -2.55411957
 C            1.14669256        2.69622965       -2.79672476
 C            1.66554021       -0.91518035       -2.88914618
 C            1.58771856        0.43743968       -3.40679036
 C            0.04600109       -2.74176917       -2.85757145
 C            0.64638599       -1.71078567       -3.55797637
 C           -1.69396862       -3.49615847       -1.47527585
 C           -2.77396276       -3.14032495       -0.67683578
 C           -3.61192623       -2.02829360       -1.07856914
 C           -1.40323753       -2.73989373       -2.68847462
 C           -3.26893347        0.18685582       -1.76330549
 C           -3.20088533       -1.19998037       -2.19644475
 C           -2.14475719       -1.59771676       -3.01329507
 C           -1.85341223        2.11286911       -1.54905516
 C           -1.04448166        3.05459545       -2.17237403
 C           -0.21907500        2.62342542       -3.28269897
 C           -2.40844138        1.10805476       -2.34394905
 C            0.42349854        0.50525317       -4.27693818
 C           -0.20698382       -0.80120697       -4.29068614
 C           -1.58350161       -0.64224253       -3.85638551
 C           -0.60031101        1.49133063       -3.98312431
 C           -1.78441085        0.76482288       -3.54479094
