   70
C70 / DATE: 7/ 1/2024 / Origin: Program Fullerene / C70 from database
 C            1.19713425        0.22836100        4.65900387
 C            2.47031408        0.02611849        4.00327785
 C            2.49482562       -1.34257925        3.51440688
 C            0.38184568       -0.95310895        4.40669378
 C            1.13642449       -1.83090662        3.53050930
 C           -0.92980645       -0.50352839        3.97288753
 C            0.41455211        1.38706692        4.28638357
 C           -0.95206535        0.93853164        4.09437709
 C            0.79032353        2.14532567        3.10174416
 C            2.82983390        0.87897159        2.88191664
 C            1.88973072        1.75340468        2.34079436
 C            3.19413143       -1.32958147        2.25146431
 C            3.59500277        0.04303266        1.98358090
 C            2.69654453       -2.07426879        1.18692834
 C            0.55108852       -2.23662832        2.33518385
 C            1.33704319       -2.43177100        1.18655770
 C           -1.49381338       -1.07130448        2.83442820
 C           -0.83205603       -2.12544989        2.20619634
 C           -2.43282826       -0.33580944        2.10600511
 C           -1.50349701        1.69768213        2.99308683
 C           -0.43927132        2.50624422        2.42684242
 C           -2.35609640        1.06290463        2.10233000
 C           -0.43266025        2.68322715        1.04944236
 C            1.88677885        1.97223658        0.96011040
 C            0.76708739        2.55368730        0.34059274
 C            3.71717880        0.41390487        0.65350803
 C            2.95161149        1.49145346        0.18809139
 C            3.34723203       -1.88813571       -0.02998960
 C            4.02111979       -0.61724295       -0.22854876
 C            2.65899598       -2.19444332       -1.26759145
 C            0.70439239       -2.76029113       -0.02027282
 C            1.28905628       -2.39662236       -1.22970335
 C           -1.44928221       -2.75335445        1.13776371
 C           -0.63795491       -3.11688986       -0.00950034
 C           -3.14208013       -0.97302826        1.08315921
 C           -2.70778281       -2.22373658        0.64173974
 C           -3.95187597       -0.19976463        0.25260967
 C           -2.63882217        1.73124871        0.91932766
 C           -1.64089348        2.54258840        0.36790621
 C           -3.64623138        1.21149161        0.11783182
 C           -1.68461578        2.89499921       -0.97251241
 C            0.77467209        2.80994666       -1.03796003
 C           -0.43830760        2.97258980       -1.71006885
 C            3.04097194        1.86405405       -1.15029039
 C            1.88651376        2.45589731       -1.79806285
 C            4.06592414       -0.35206162       -1.64833683
 C            3.21979653       -1.34140936       -2.29905205
 C            3.65507745        0.95675940       -2.10629771
 C            1.67218378        1.75515371       -3.05875193
 C            2.31443873       -0.63408880       -3.18002456
 C            2.71373853        0.75718104       -3.19235986
 C            0.48701387       -1.92653972       -2.27605592
 C            0.95607433       -0.91087627       -3.11642962
 C           -1.43694635       -2.90304209       -1.20491446
 C           -2.78605945       -2.56997523       -0.76965745
 C           -0.87282400       -2.24436030       -2.29696377
 C           -4.32768964       -0.70032140       -1.05910783
 C           -3.61370690       -1.83777178       -1.60768525
 C           -3.71080578        1.55566514       -1.29037687
 C           -2.69100378        2.31597246       -1.84620491
 C           -4.22275843        0.39921600       -2.00560208
 C           -0.63103764        2.27395088       -2.97051976
 C            0.36836760        1.40918439       -3.39789379
 C            0.06133967        0.05341123       -3.57478251
 C           -2.02253707        1.87201233       -3.06313195
 C           -1.70316739       -1.58920298       -3.20545994
 C           -3.12275172       -1.46282979       -2.92101822
 C           -3.50667644       -0.08220048       -3.17061999
 C           -1.25609679       -0.33458242       -3.78593425
 C           -2.32435798        0.63423274       -3.61499961
