   70
C70 / DATE: 7/ 1/2024 / Origin: Program Fullerene / C70 from database
 C            1.25911291       -0.07720554        4.07784724
 C            2.37470302       -0.23217200        3.16114465
 C            2.31739609       -1.58307407        2.62418818
 C            0.41388915       -1.25349803        3.95695030
 C            1.04808453       -2.16575656        3.03435758
 C           -0.92918451       -0.81088690        3.66567641
 C            0.41501066        1.09544371        3.96216424
 C           -0.94484837        0.64403139        3.71846529
 C            0.89303520        2.19124083        3.26607292
 C            2.72806212        0.82164252        2.32319079
 C            2.10650495        2.06347159        2.46732041
 C            3.42130726        0.54127980        1.15025879
 C            2.79175851       -1.83537080        1.33780617
 C            3.46685935       -0.82645737        0.65230374
 C            2.24042641       -2.89574775        0.61962622
 C            0.27835332       -2.82005406        2.08106049
 C            0.96410069       -3.44732966        1.04605830
 C           -1.65869405       -1.45129395        2.67027896
 C           -1.07488269       -2.48187341        1.91597107
 C           -2.78786727       -0.79636853        2.18573577
 C           -1.76837561        1.34061730        2.83308844
 C           -2.84098174        0.65581964        2.26215337
 C           -0.04033156        3.00984304        2.51693645
 C           -1.33385254        2.54739891        2.27017162
 C            1.96454697        2.93452016        1.30884650
 C            0.71196120        3.65371326        1.45106553
 C            3.28634357        1.42938418        0.00578160
 C            2.36982659        2.47681175        0.05796350
 C            3.40330719       -0.77206279       -0.80140503
 C            3.41191697        0.62564356       -1.19584594
 C            2.23593445       -2.85810990       -0.83406808
 C            2.60864254       -1.68694708       -1.48684580
 C            0.25576762       -3.91041718       -0.13282899
 C            1.08288742       -3.61373683       -1.29292125
 C           -1.80772192       -3.06475750        0.88058921
 C           -1.11903806       -3.74924133       -0.20198970
 C           -3.38089425       -1.19593382        0.92175080
 C           -2.92435602       -2.34171865        0.29638350
 C           -3.44773760        1.13842097        1.03280867
 C           -3.55927849        0.00641042        0.12975052
 C           -2.07879903        3.14649657        1.25514909
 C           -3.05781526        2.36312059        0.52401060
 C            0.04462189        4.07787920        0.31515473
 C           -1.40482391        3.99813523        0.28935907
 C            1.67501309        2.86580107       -1.09520624
 C            0.53681688        3.66741120       -0.98886416
 C            2.73386417        1.00870867       -2.33672927
 C            1.87234039        2.17771848       -2.29260246
 C            1.97589445       -1.31606881       -2.67907930
 C            2.07250496       -0.00304252       -3.14262275
 C            0.48901318       -3.27227214       -2.49848334
 C            1.03890351       -2.16768932       -3.26409348
 C           -1.73794980       -3.34296386       -1.45487146
 C           -2.72820008       -2.32438635       -1.14335565
 C           -0.96215344       -3.20548601       -2.59870755
 C           -2.99268696        0.07509997       -1.14197446
 C           -2.71362979       -1.10738918       -1.82890558
 C           -2.72430708        2.45712773       -0.88648307
 C           -1.80986222        3.56795030       -1.03941388
 C           -0.61362080        3.36508751       -1.82838494
 C           -2.48742486        1.29221386       -1.61104777
 C            0.72214122        1.91102974       -3.14105656
 C            0.92238538        0.62360572       -3.77843449
 C           -0.53986486        2.26885275       -2.68018692
 C           -1.55895145        1.30706315       -2.65768035
 C           -0.04675602       -1.59504003       -4.04055114
 C           -1.29134031       -2.14693207       -3.53640015
 C           -2.11621279       -1.04001181       -3.08317778
 C           -0.18428560       -0.15160716       -4.08442521
 C           -1.46650884        0.19390822       -3.48879799
