   70
C70 / DATE: 7/ 1/2024 / Origin: Program Fullerene / C70 from database
 C            1.35030879       -0.12522271        4.55022416
 C            2.63395101       -0.40952189        3.93683755
 C            2.58421929       -1.75575835        3.39846056
 C            0.51431543       -1.30091937        4.40132849
 C            1.31179540       -2.34523615        3.77951938
 C           -0.72554555       -0.89223740        3.75857775
 C            0.59522275        1.01941097        4.07395851
 C           -0.65789476        0.53679985        3.51489794
 C            1.26580906        2.02455689        3.39975994
 C            3.10541856        0.47146065        2.88507091
 C            2.56850895        1.74456379        2.79427655
 C            2.92864564       -1.68921666        1.98598824
 C            3.23267597       -0.30771397        1.66301179
 C            2.19205389       -2.44273229        1.08389263
 C            0.68744050       -3.18754326        2.87296957
 C            1.31405553       -3.40554309        1.58163270
 C           -1.26764779       -1.70895187        2.77931717
 C           -0.71947608       -2.97738193        2.58718533
 C           -2.00915279       -1.12935989        1.75198347
 C           -1.11169162        1.04971824        2.29534445
 C           -1.79604140        0.21365374        1.41034181
 C            0.52509547        2.81312893        2.43594521
 C           -0.62543505        2.27980557        1.84750465
 C            2.56699187        2.39511630        1.49965069
 C            1.52926673        3.40053509        1.57783993
 C            2.78002459        0.23303949        0.45758162
 C            2.65529486        1.62005572        0.33996691
 C            2.01367579       -1.96488026       -0.21455510
 C            2.16290494       -0.59777186       -0.48235698
 C            1.37153492       -2.78239496       -1.13636327
 C            0.28592717       -3.95079156        0.71123869
 C           -0.99827689       -3.69183320        1.35282732
 C            0.41300572       -3.76523456       -0.65765255
 C           -2.65545073       -1.97302496        0.86088412
 C           -2.07166905       -3.27450343        0.58052019
 C           -3.16718679       -1.44112812       -0.38101794
 C           -2.20000205        0.70223848        0.15872810
 C           -3.00658950       -0.08984634       -0.66996636
 C           -1.02677566        2.78257643        0.60550376
 C           -1.79247530        1.98154454       -0.25876922
 C            1.10213793        3.95576359        0.39557749
 C           -0.31061067        3.86728018        0.09371751
 C            2.19681124        2.17678657       -0.85642247
 C            1.74721984        3.50042845       -0.81444451
 C            1.63160349       -0.04034749       -1.65234467
 C            1.77221109        1.32969169       -1.89010378
 C            0.84700514       -2.21143782       -2.35960173
 C            0.96496037       -0.84580461       -2.58713840
 C           -0.78142104       -3.64413870       -1.47558380
 C           -2.00958858       -3.41847833       -0.86300884
 C           -2.91116860       -2.42817853       -1.42181257
 C           -0.41628334       -2.87019588       -2.64988906
 C           -2.70832243       -1.98187820       -2.71852628
 C           -1.39405853       -2.15726871       -3.32892810
 C           -3.28009888        0.32448847       -1.96694888
 C           -3.16274932       -0.64336700       -3.04471493
 C           -2.08374282        2.42663001       -1.56256738
 C           -2.73084029        1.57108119       -2.44879906
 C           -0.41126413        4.19794559       -1.30924177
 C            0.92140890        4.02012848       -1.88095005
 C           -1.32951433        3.45165543       -2.12865889
 C            1.25843313        1.86908110       -3.07050778
 C            0.78074154        3.23637663       -3.08301318
 C           -0.63751486        3.18153371       -3.37358136
 C            0.16181921       -0.26181860       -3.57024399
 C           -1.02774191       -0.89257778       -3.94185146
 C           -2.23583581       -0.09763987       -4.01416899
 C           -2.11968523        1.31824762       -3.75202545
 C            0.30513458        1.09499731       -3.84453615
 C           -0.89587753        1.91155887       -4.01177014
