   70
C70 / DATE: 7/ 1/2024 / Origin: Program Fullerene / C70 from database
 C            1.60041699        0.05047943        4.55064663
 C            0.77044286       -1.13696975        4.53618366
 C            1.50569739       -2.16659142        3.82970888
 C            2.64854465       -0.14109106        3.56253879
 C            2.51489159       -1.48416291        3.03276432
 C            2.59005832        0.97271415        2.63518117
 C            0.78131397        1.15874780        4.10478030
 C            1.50209667        1.84204436        3.04779546
 C           -0.54487163       -0.77432382        4.02885207
 C           -0.54500414        0.65535402        3.79409098
 C           -1.14327790       -1.62611587        3.10417889
 C            0.76314063       -3.15868820        3.21818633
 C           -0.66609385       -2.93490655        3.06313355
 C            1.21000470       -3.65536419        1.93471899
 C            2.52335022       -1.65867126        1.64879122
 C            1.91549772       -2.79273408        1.09312624
 C            2.74387935        0.72703534        1.27516208
 C            2.88991030       -0.58985802        0.82648853
 C            2.31098009        1.70571005        0.37835487
 C            0.75286553        2.44745134        2.04855881
 C            1.34248561        2.62547815        0.80049555
 C           -1.16236387        1.15583939        2.65941394
 C           -0.63213463        2.31294726        2.09854296
 C           -1.78599460       -1.08297504        1.97672229
 C           -1.92159863        0.30702062        1.84905012
 C           -2.16290922       -1.90576496        0.90612268
 C           -1.11071030       -3.82317039        2.01564410
 C            0.08469428       -4.40207899        1.41424513
 C           -1.90817535       -3.27573683        0.94420392
 C           -0.11915093       -4.43372099       -0.01379844
 C           -1.45460187       -3.92254961       -0.26764439
 C            1.81225736       -2.92485667       -0.30115940
 C            0.78855737       -3.68734806       -0.86294683
 C            3.05046861       -0.81960137       -0.53106521
 C            2.43810046       -1.99394582       -1.12239346
 C            2.58763561        1.55242208       -0.98205443
 C            2.89196400        0.28251896       -1.46381826
 C            2.09942432        2.48903024       -1.88786713
 C            0.66270417        3.39581015       -0.13977444
 C            1.19620587        3.51919752       -1.41555358
 C           -1.38357570        2.96512599        1.13922147
 C           -0.68814918        3.66912872        0.07641115
 C           -2.54479125        0.85081754        0.71620844
 C           -2.47484720        2.23378889        0.52586238
 C           -2.48649237       -1.32147001       -0.31941958
 C           -2.88553962        0.01629090       -0.35457328
 C           -1.38509606       -3.12373963       -1.46883564
 C           -0.01113273       -3.10809528       -1.93054126
 C           -2.07009781       -1.92782740       -1.51195549
 C            1.77279198       -1.57770360       -2.35102630
 C            2.17501897       -0.21411087       -2.62894208
 C            0.45603928       -1.96103019       -2.57654079
 C            1.56750708        2.00789391       -3.15104527
 C            1.30057431        0.64707457       -3.27903159
 C            0.33466513        3.89383371       -2.52714869
 C            0.61631798        2.98788886       -3.63033692
 C           -1.60751954        3.75337833       -1.04614617
 C           -2.69345270        2.81146424       -0.78917753
 C           -1.10271885        3.92023391       -2.33073116
 C           -3.22151546        0.56730394       -1.59744744
 C           -3.17396757        2.00327870       -1.80513386
 C           -1.80070617       -1.10853950       -2.58864212
 C           -0.46692255       -0.99530056       -3.00503205
 C           -0.00713534        0.21546646       -3.54684360
 C           -2.67395107       -0.05812979       -2.78579993
 C           -0.64454580        2.52054990       -4.15854068
 C           -1.70836868        3.21002258       -3.44283743
 C           -2.75597242        2.24277750       -3.17749030
 C           -0.93276578        1.09879245       -4.11034591
 C           -2.32435259        0.97226073       -3.73374527
