   70
C70 / DATE: 7/ 1/2024 / Origin: Program Fullerene / C70 from database
 C            1.41045126       -0.01141047        5.11387823
 C            0.64808815       -1.23589038        4.97403273
 C            1.56788728       -2.24682663        4.49839024
 C            2.62978086       -0.16834832        4.33364981
 C            2.73914137       -1.55939547        3.96724946
 C            2.59847219        0.82034922        3.27671275
 C            0.63854989        1.05719291        4.50643723
 C            1.49698423        1.72044927        3.55671444
 C           -0.54023991       -0.93427205        4.18605108
 C           -0.59894258        0.50570533        3.99973605
 C           -0.90401825       -1.75983775        3.12242184
 C            1.10648365       -3.15650466        3.47526607
 C           -0.19973088       -2.94052186        2.87559833
 C            2.84466218       -1.90180742        2.55970479
 C            2.07168221       -3.10959890        2.38944445
 C            2.80812062        0.44724416        1.94429946
 C            2.74842288       -0.90608611        1.58103549
 C            2.51921352        1.40783348        0.97462539
 C            0.91096040        2.31642371        2.45748021
 C            1.73143516        2.49709942        1.36239552
 C           -1.08009593        0.99774179        2.79020947
 C           -0.44655109        2.09458487        2.19786229
 C           -1.68815446       -1.23135282        2.09542179
 C           -1.83802743        0.15767580        1.98373900
 C           -1.96585592       -2.03630005        0.98943267
 C           -0.07540455       -3.39335051        1.50440399
 C            1.32800928       -3.26360342        1.16193243
 C           -0.99320862       -2.93716842        0.56899752
 C            2.33016657       -1.25712221        0.28519253
 C            1.63614512       -2.45571440        0.07882995
 C            2.56191762        1.04584087       -0.37253414
 C            2.31193024       -0.28184271       -0.72419935
 C            2.43597730        2.04688884       -1.32750253
 C            1.27444626        3.37697457        0.40309320
 C            1.84598073        3.30545564       -0.92036109
 C           -0.96665566        2.60638277        1.00093250
 C           -0.16502247        3.48588229        0.26313121
 C           -2.44504566        0.69156160        0.84979010
 C           -2.00871865        1.92711964        0.35700244
 C           -2.87354368       -1.57279706        0.04521631
 C           -3.19559793       -0.15891122        0.04278259
 C           -2.71262264       -1.97989120       -1.34358345
 C           -0.56786359       -2.85275277       -0.75299977
 C            0.76813679       -2.52197076       -0.99592368
 C           -1.51653016       -2.58325184       -1.73577475
 C            1.75332609       -0.58778002       -1.98171701
 C            1.08181582       -1.80815643       -2.13652924
 C            1.90667841        1.72541338       -2.63530407
 C            1.67030982        0.40205799       -2.97800401
 C            0.80030112        3.64732394       -1.86657532
 C           -0.44981315        3.74557194       -1.13854970
 C            0.89074295        2.71440770       -2.96932477
 C           -2.45974930        2.38167037       -0.88386764
 C           -1.59036178        3.20499345       -1.70565699
 C           -3.52551968        0.22157684       -1.32041846
 C           -3.31341181       -0.94067454       -2.16941426
 C           -3.17451321        1.48282249       -1.77416908
 C           -2.87899840       -0.77578256       -3.47871500
 C           -1.07702281       -2.44332625       -3.04928593
 C            0.30605216       -2.05418722       -3.26060614
 C           -1.89391913       -1.70589810       -3.99503875
 C            0.88314684        0.18902742       -4.10844376
 C            0.34952690       -1.12651769       -4.36183931
 C           -1.00157950       -0.97689176       -4.87771773
 C           -0.27222542        2.27631289       -3.59417422
 C           -1.51552630        2.58772520       -3.02497254
 C           -2.62612599        1.64667880       -3.11338547
 C           -2.53329364        0.55339634       -3.96523069
 C           -0.15876043        1.15946043       -4.41550752
 C           -1.35229525        0.42889863       -4.79576721
