   70
C70 / DATE: 7/ 1/2024 / Origin: Program Fullerene / C70 from database
 C            1.26172744        0.00524730        4.38542182
 C            2.53206531       -0.17173002        3.70039010
 C            2.49530722       -1.46436616        3.03260691
 C            0.45008413       -1.17287728        4.12700893
 C            1.15110498       -1.99844536        3.16928742
 C           -0.88487606       -0.72964017        3.79026065
 C            0.45170465        1.18068080        4.10059577
 C           -0.87244025        0.72365011        3.72260483
 C            1.01713096        2.24721152        3.41992378
 C            3.11877528        0.91855303        3.06758647
 C            2.42983487        2.19899783        3.07787513
 C            3.73155748        0.75384852        1.75762193
 C            3.16332736       -1.64024932        1.83055949
 C            3.80811865       -0.50570633        1.18334163
 C            2.53460724       -2.43319030        0.78890296
 C            0.46472899       -2.42882288        2.03669100
 C            1.17643149       -2.73877849        0.87181310
 C           -1.60045372       -1.41452665        2.81594796
 C           -0.93183824       -2.34044858        2.00208755
 C           -2.72543273       -0.76846856        2.31665583
 C           -1.56355558        1.34314471        2.68089442
 C           -2.68119763        0.67938693        2.19040818
 C            0.30167345        2.82895858        2.29473760
 C           -0.89578810        2.25696421        1.85664425
 C            2.59249214        2.80364768        1.76868158
 C            3.33597552        1.88098412        0.93115844
 C            1.28732712        3.24124095        1.31066955
 C            2.88156172        1.66298839       -0.36711293
 C            3.59970684       -0.64299442       -0.24868888
 C            3.07953963       -1.97802070       -0.47515975
 C            3.08055810        0.42235543       -0.98425752
 C            2.35847419       -2.22086473       -1.63012358
 C            0.49256475       -3.11093722       -0.28812504
 C            1.09225103       -2.92753092       -1.53219593
 C           -1.61473346       -2.94862890        0.95309455
 C           -0.87668524       -3.33941023       -0.23418866
 C           -3.41597107       -1.30024312        1.15824591
 C           -2.90212584       -2.42333108        0.52678862
 C           -3.19977592        1.01649405        0.88204366
 C           -3.86648173       -0.16662915        0.36597603
 C           -1.26193165        2.39535526        0.50725611
 C           -2.43178566        1.79465429        0.02459338
 C            0.97370513        3.08473826       -0.02913781
 C            1.92893068        2.53567627       -0.88749964
 C           -0.36850408        3.00134952       -0.38022413
 C            1.63919449        2.46296607       -2.24171704
 C            2.49127950        0.16709429       -2.22838456
 C            2.17907762       -1.14291974       -2.58805559
 C            1.89510896        1.21092088       -2.93045960
 C            0.27708766       -2.52191558       -2.66565069
 C            0.95161510       -1.41086290       -3.32197943
 C           -1.69908756       -3.04015139       -1.39858231
 C           -2.97809651       -2.53251785       -0.92078916
 C           -1.10786413       -2.50322041       -2.54451318
 C           -4.00996322       -0.30176916       -1.00564867
 C           -3.64437892       -1.55623619       -1.64954834
 C           -2.69376966        1.75230108       -1.34962892
 C           -3.55164400        0.77724580       -1.86163640
 C           -0.70045332        3.12951051       -1.72126158
 C            0.35866479        2.97010728       -2.69982885
 C           -1.87805654        2.45688716       -2.23029280
 C            0.75416501        0.93343585       -3.79384456
 C            0.20179625       -0.34705129       -3.81466883
 C           -0.12416831        2.08743291       -3.74476959
 C           -1.53771868        1.87186968       -3.52322267
 C           -1.83806179       -1.65603707       -3.37432830
 C           -3.17413803       -1.24290935       -2.98521559
 C           -3.26095586        0.19668872       -3.15882638
 C           -1.17641830       -0.50889662       -3.98038560
 C           -2.07090392        0.63774014       -3.85842302
