   70
C70 / DATE: 7/ 1/2024 / Origin: Program Fullerene / C70 from database
 C            1.26286818       -0.16061113        4.42858324
 C            2.53267778       -0.36029477        3.75578489
 C            2.46696051       -1.62787938        3.05126034
 C            0.41958154       -1.31038950        4.14171177
 C            1.12806227       -2.16655915        3.21926367
 C           -0.88511930       -0.82412903        3.75345042
 C            0.49456123        1.03856277        4.14191494
 C           -0.85597217        0.63091043        3.79806766
 C            1.08336346        2.07816695        3.43837527
 C            2.99488205        0.64424803        2.81636696
 C            2.37645763        1.88659325        2.78856985
 C            2.95783888       -1.42025155        1.69698325
 C            3.29727510       -0.01727790        1.55556915
 C            2.29373907       -2.05145248        0.65405532
 C            0.47075356       -2.62437077        2.08538179
 C            1.24510105       -2.91028789        0.96913712
 C           -1.56185258       -1.44118168        2.70597966
 C           -0.90040180       -2.38549911        1.90782606
 C           -2.65145350       -0.76351024        2.18257619
 C           -1.58695368        1.34272662        2.84599635
 C           -2.66277685        0.69031906        2.24589848
 C            0.26013208        2.88423799        2.55529767
 C           -1.03444629        2.48092672        2.24113814
 C            2.34914605        2.62142915        1.53891101
 C            1.11966478        3.39459646        1.50025392
 C            3.00685851        0.63165018        0.35713444
 C            2.78784758        2.01204912        0.36820310
 C            2.33625445       -1.48753847       -0.62118425
 C            2.63779393       -0.12398432       -0.76428639
 C            1.77898639       -2.20640416       -1.68324874
 C            0.66718859       -3.64675741       -0.04538297
 C            1.08056700       -3.38107449       -1.40897627
 C           -1.51597788       -2.88248895        0.74731505
 C           -0.77726682       -3.76183848       -0.05110141
 C           -3.19620782       -1.16153836        0.90354520
 C           -2.65882748       -2.24864361        0.22893014
 C           -3.22744950        1.18841474        1.00445714
 C           -3.49046929        0.04573326        0.14721423
 C           -1.64164855        3.04513391        1.12138617
 C           -2.72228535        2.34764340        0.44672572
 C            0.57377332        3.70846112        0.25846425
 C           -0.81447361        3.67455047        0.10021237
 C            2.50939383        2.66069869       -0.82544005
 C            1.39912215        3.60271701       -0.85978905
 C            2.48369745        0.50903414       -2.00170471
 C            2.48155127        1.89943035       -2.05765047
 C            1.61608584       -1.59823656       -2.92263418
 C            1.95013442       -0.19534685       -3.07749049
 C            0.40205999       -1.83942067       -3.69200338
 C           -0.01962236       -3.77972542       -2.27042373
 C           -1.17408225       -4.03318818       -1.41993811
 C           -0.43256580       -2.88984718       -3.33921766
 C           -2.96617392       -2.34528459       -1.12796875
 C           -2.29686980       -3.31350041       -1.96787274
 C           -1.84968851       -2.62120504       -3.16645479
 C           -3.15373490        0.08792898       -1.20498037
 C           -3.12202847       -1.11879694       -1.89391415
 C           -2.30104771       -1.23920867       -3.08106605
 C           -2.44992677        2.37968962       -0.97914144
 C           -1.40688633        3.36379328       -1.19690898
 C           -2.44914868        1.18866919       -1.70515428
 C            0.81331535        3.54905553       -2.18551329
 C            1.55237283        2.56383076       -2.95537262
 C           -0.59816160        3.24975230       -2.31434990
 C            0.90208221        0.41820454       -3.88582676
 C           -0.18362877       -0.53826578       -3.95625030
 C           -1.41667814       -0.21465153       -3.39159784
 C           -1.59337571        1.04159643       -2.80686925
 C            0.59363498        1.75153533       -3.67655179
 C           -0.72858311        2.07835088       -3.16567578
