   70
C70 / DATE: 7/ 1/2024 / Origin: Program Fullerene / C70 from database
 C            1.42450340        0.05067190        4.89470671
 C            0.63752634       -1.14671478        4.67629480
 C            1.48517708       -2.11313963        4.01664022
 C            2.65662402       -0.09149592        4.13488511
 C            2.69432385       -1.42737774        3.58591213
 C            2.72664070        1.01944514        3.21479568
 C            0.68720257        1.17340001        4.33612230
 C            1.57771776        1.87884211        3.45185240
 C           -0.59158954       -0.75519136        4.01373758
 C           -0.54757987        0.67845991        3.77623054
 C           -1.11253021       -1.55542362        3.00590726
 C            0.94971260       -2.80135170        2.86235689
 C           -0.39852913       -2.67452931        2.54479836
 C            2.79875604       -1.58496768        2.14235594
 C            1.89584799       -2.65533587        1.77718047
 C            3.09908450        0.80152483        1.89001699
 C            2.87487079       -0.46122361        1.31940147
 C            3.01764720        1.91432727        1.06917292
 C            1.05009868        2.52706572        2.34376931
 C            1.98347750        2.88561099        1.38629253
 C           -0.95862482        1.15801564        2.53054309
 C           -0.24717095        2.19983114        1.90668403
 C           -2.03248668       -0.96494266        2.14648438
 C           -1.82757953        0.36789632        1.77214824
 C           -2.75620942       -1.80852978        1.31902936
 C           -0.80559325       -3.23786984        1.33574331
 C           -2.14507800       -3.07883045        0.99678115
 C            1.37622627       -2.69184284        0.49397866
 C            0.15563140       -3.33562784        0.31657734
 C            2.41852421       -0.56204899       -0.00625424
 C            1.75715918       -1.71989146       -0.43639272
 C            2.99041940        1.73796636       -0.36474389
 C            2.56362528        0.51987790       -0.87868941
 C            1.52751265        3.45199465        0.14511447
 C            2.42003807        2.96133745       -0.89090766
 C           -0.68226384        2.66326149        0.65239495
 C            0.16533406        3.48364717       -0.11254489
 C           -2.22070471        0.80896087        0.50899325
 C           -1.79224181        2.05258733        0.05266651
 C           -3.33022090       -1.28476327        0.09821918
 C           -2.92557211       -0.03796723       -0.35138135
 C           -2.61082749       -3.47885855       -0.31364192
 C           -3.39259918       -2.37639444       -0.85355129
 C           -0.22352842       -3.62842234       -0.98651075
 C           -1.62255854       -3.84920666       -1.29943748
 C            1.20935293       -1.77319935       -1.72380198
 C            0.35798354       -2.83457814       -2.05548217
 C            1.94716548        0.49527626       -2.13340316
 C            1.27729766       -0.65410084       -2.55919784
 C            1.95609597        2.96272537       -2.19197555
 C            1.82365072        1.68276666       -2.86753268
 C           -0.21563746        3.88599393       -1.38886324
 C            0.74548421        3.71713353       -2.46806142
 C           -2.26808104        2.50836335       -1.17325383
 C           -1.51588629        3.50934942       -1.89534615
 C           -2.93931416        0.22525766       -1.72166291
 C           -2.74970581        1.53720575       -2.14081834
 C           -2.94306672       -2.13266545       -2.21083218
 C           -1.92159815       -3.12115936       -2.51743001
 C           -0.66408923       -2.65700509       -3.07664545
 C           -2.73054568       -0.82170360       -2.62866239
 C            0.46321392       -0.59153535       -3.69099343
 C           -0.67799704       -1.47466219       -3.79385358
 C           -1.85386597       -0.62485923       -3.69318281
 C            0.75532302        1.82131185       -3.84416198
 C            0.06802006        3.07404290       -3.57645082
 C           -1.34774865        3.04400009       -3.26464889
 C           -2.05878132        1.78722202       -3.39496523
 C            0.01336722        0.69953471       -4.17481819
 C           -1.44083034        0.72250847       -4.03768772
