   70
C70 / DATE: 7/ 1/2024 / Origin: Program Fullerene / C70 from database
 C            1.16784110       -0.04536211        4.60279483
 C            2.48880099       -0.27585628        4.05067405
 C            2.50746715       -1.62494088        3.51521928
 C            0.35571573       -1.21897230        4.31482144
 C            1.13970807       -2.11657253        3.50159767
 C           -0.90900993       -0.76421005        3.79702952
 C            0.42055021        1.12557458        4.17810371
 C           -0.92076217        0.69004972        3.83649744
 C            1.03626429        2.08378669        3.38823764
 C            2.98738441        0.61473165        3.01758481
 C            2.32596814        1.80720328        2.76298614
 C            3.23634837       -1.59687651        2.26153022
 C            3.42930723       -0.20110582        1.89794111
 C            2.84295790       -2.48077351        1.27104475
 C            0.61832573       -2.59593714        2.30009297
 C            1.52561460       -3.09270217        1.37340679
 C           -1.46710264       -1.39546312        2.69300511
 C           -0.66371873       -2.20447694        1.86883792
 C           -2.58727955       -0.78320391        2.15662829
 C           -1.65628000        1.36815978        2.86382986
 C           -2.69587842        0.66346510        2.25784982
 C            0.23501391        2.82115942        2.43023806
 C           -1.10110915        2.48227830        2.21624378
 C            2.26752620        2.30128084        1.40000290
 C            1.07810969        3.11826304        1.28251202
 C            3.16039345        0.20313729        0.58769175
 C            2.60818808        1.46858771        0.34180866
 C            3.01663070       -2.09317479       -0.11548536
 C            3.19438223       -0.75207340       -0.43376518
 C            1.08292638       -3.39443307        0.03409764
 C            2.07929986       -2.88102197       -0.89452100
 C           -1.10789350       -2.55291586        0.57369015
 C           -0.25451696       -3.25953263       -0.29426858
 C           -3.06796557       -1.17811182        0.85682996
 C           -2.37439889       -2.12958872        0.12761604
 C           -3.30806281        1.15319942        1.03720640
 C           -3.55025480        0.01203802        0.17222808
 C           -1.72303140        3.01346331        1.08678580
 C           -2.86094254        2.33701407        0.48681866
 C            0.47827820        3.25818755        0.03755253
 C           -0.89003200        3.51196230        0.00369159
 C            2.14642620        1.79002378       -0.93394390
 C            1.09966517        2.71008902       -1.08927457
 C            2.97165445       -0.35756152       -1.74651221
 C            2.54959041        1.00324054       -2.00540572
 C            1.65610767       -2.40904690       -2.13508772
 C            2.21570238       -1.23277808       -2.63520300
 C           -0.55466978       -3.34554880       -1.64766619
 C            0.41287015       -2.82844075       -2.60434358
 C           -2.72618686       -2.25426836       -1.21285553
 C           -1.87325288       -2.99370214       -2.10803896
 C           -3.36122693        0.11386959       -1.20523679
 C           -3.20494554       -1.07449373       -1.91942683
 C           -2.73894144        2.44623920       -0.95648739
 C           -1.62440058        3.34060185       -1.23590687
 C           -2.94942902        1.32965323       -1.76874092
 C            0.50624104        2.88769170       -2.34066792
 C           -0.91585001        3.18454470       -2.41671257
 C            1.77886961        0.99860212       -3.23354065
 C            1.44914698       -0.38762240       -3.54039012
 C            0.83323841        1.98912867       -3.43628996
 C           -0.31235668       -2.01885412       -3.57036839
 C           -1.73071237       -2.22492267       -3.33366030
 C           -2.59873007       -1.06622852       -3.24047391
 C            0.14461739       -0.74221708       -3.88057181
 C           -2.49359126        1.36830163       -3.08614531
 C           -1.48751189        2.34968249       -3.45585225
 C           -0.40052850        1.64588253       -4.11570172
 C           -2.15859732        0.13428738       -3.77044065
 C           -0.77796230        0.24761012       -4.22174154
