   70
C70 / DATE: 7/ 1/2024 / Origin: Program Fullerene / C70 from database
 C            1.20768020        0.09763904        4.23820254
 C            2.51629588       -0.28949585        3.76867244
 C            2.48109772       -1.72040030        3.50183080
 C            0.38732764       -1.10231145        4.27174708
 C            1.08679025       -2.12491389        3.52897306
 C           -0.93096381       -0.72696991        3.82755146
 C            0.46679050        1.09461154        3.49047729
 C           -0.92364639        0.70076844        3.55502138
 C            0.95929692        1.56898483        2.28024864
 C            3.04081143        0.34671271        2.57998975
 C            2.24870819        1.23323975        1.84492022
 C            3.25462415       -1.95783915        2.29686324
 C            3.79112099       -0.67270489        1.87300703
 C            2.74499165       -2.82810284        1.34250101
 C            0.50486260       -2.64562171        2.37154757
 C            1.33742626       -3.20624199        1.39993628
 C           -1.59544629       -1.54038039        2.92466356
 C           -0.83192063       -2.34049834        2.05199953
 C           -2.81826357       -1.04798408        2.49317431
 C           -1.80714291        1.16943915        2.58670152
 C           -2.93721120        0.39569620        2.34735569
 C            0.06448118        2.14047159        1.37996231
 C           -1.31830258        1.96290066        1.54478910
 C            0.55922886        2.73359808        0.22207101
 C            2.62506613        1.53005005        0.53219694
 C            1.81214830        2.34687459       -0.25775240
 C            4.07595733       -0.45951540        0.53385815
 C            3.64072659        0.78483740       -0.07273483
 C            3.10152788       -2.64243753       -0.05502912
 C            3.82299063       -1.51561995       -0.43611899
 C            0.85961302       -3.33237314        0.03632862
 C            1.97555069       -3.08662821       -0.86013237
 C           -1.30532601       -2.62176553        0.75743901
 C           -0.39739547       -2.83764138       -0.27447507
 C           -3.46299374       -1.66361354        1.36044228
 C           -2.63141693       -2.37622099        0.42179783
 C           -3.74931052        0.66140402        1.17699980
 C           -4.16591077       -0.62201403        0.63501805
 C           -2.19055844        2.38100233        0.53465059
 C           -3.36816323        1.65837872        0.28557480
 C           -0.30462034        3.46652177       -0.58859109
 C           -1.73628546        3.32217706       -0.38829035
 C           -0.05695065        3.53720879       -2.02164415
 C            2.09282414        2.46486118       -1.61863851
 C            1.04426951        2.87000469       -2.53093536
 C            3.60785366        0.56327480       -1.50561526
 C            3.54388946       -0.87583380       -1.71436148
 C            2.83241578        1.40785003       -2.28269288
 C            1.73295050       -2.50067135       -2.09448528
 C            2.57382741       -1.40826026       -2.55727456
 C           -0.66210899       -2.32706477       -1.54989967
 C            0.36479840       -2.19829698       -2.47739567
 C           -2.92203536       -1.86223239       -0.90660916
 C           -3.97299932       -0.86266290       -0.78279635
 C           -1.85809581       -1.65061315       -1.78155617
 C           -3.85714986        1.55529554       -1.01685889
 C           -3.94530301        0.23829056       -1.62291411
 C           -2.37248244        3.42687496       -1.68857753
 C           -1.32922581        3.34887859       -2.69293911
 C           -3.38312283        2.45745291       -2.04330429
 C           -1.87360984       -0.55594832       -2.65524623
 C           -3.00636780        0.24776380       -2.72641012
 C           -1.53138345        2.12141442       -3.44452740
 C           -2.85623642        1.63306678       -3.12434613
 C            0.81717021        1.74395593       -3.42505069
 C            1.95606216        0.85098146       -3.30292238
 C            1.74571417       -0.51890945       -3.35755514
 C            0.38316847       -1.02687850       -3.33320135
 C           -0.47090223        1.22318198       -3.53518211
 C           -0.68720676       -0.13699801       -3.27044867
