   70
C70 / DATE: 7/ 1/2024 / Origin: Program Fullerene / C70 from database
 C            1.18334974       -0.02786795        4.58874419
 C            2.43864151       -0.17004089        3.88599138
 C            2.49284403       -1.53161794        3.39981509
 C            0.35787688       -1.18770930        4.26856932
 C            1.13763471       -2.05377170        3.41921762
 C           -0.90845583       -0.69369570        3.77451755
 C            0.37983868        1.14199027        4.31653124
 C           -0.99313659        0.68521950        4.21277651
 C            0.82851720        2.09004176        3.39925678
 C            2.70214615        0.70203324        2.75499119
 C            1.80748058        1.72525780        2.45917537
 C            3.18309227       -1.51086195        2.12728796
 C            3.20668200       -0.12739720        1.67066361
 C            2.82785696       -2.47882340        1.20868676
 C            0.60149592       -2.51297020        2.22001124
 C            1.50185426       -3.07508682        1.32486424
 C           -1.31019273       -1.01341134        2.47890678
 C           -0.58771968       -1.95281850        1.72184835
 C           -2.27034944       -0.20815416        1.85737464
 C           -1.90231821        1.52197227        3.58967257
 C           -2.61329505        1.02600064        2.42137135
 C           -0.05233353        3.12385609        3.09796727
 C           -1.47347913        2.87897763        3.28769006
 C            0.10440224        3.85131968        1.85497667
 C            1.70128504        2.15226856        1.13360072
 C            0.98653239        3.30555986        0.84432778
 C            2.83567038        0.15974136        0.35281671
 C            2.07007174        1.29651935        0.08941454
 C            2.99788613       -2.17727220       -0.19207807
 C            2.91810682       -0.84906641       -0.61217448
 C            1.06653598       -3.40870169       -0.01416019
 C            2.20441507       -3.16879167       -0.88233673
 C           -0.99702158       -2.23329334        0.40869799
 C           -0.19150275       -3.00531865       -0.44361581
 C           -2.61171957       -0.44859631        0.52638095
 C           -2.13387891       -1.60228635       -0.09803676
 C           -3.09052573        0.61742665       -0.24627304
 C           -2.84174476        2.15231993        1.53383560
 C           -2.16553779        3.30799485        2.08719381
 C           -1.21374623        4.00521704        1.25565953
 C           -2.79790460        1.90931144        0.16772129
 C            0.29398608        3.39617035       -0.42339478
 C           -1.10710959        3.61269800       -0.13393152
 C           -2.02083225        2.71427584       -0.68131893
 C            1.59148099        1.52696962       -1.20456178
 C            0.59273214        2.48156862       -1.41835277
 C            2.50973062       -0.59609836       -1.92573287
 C            1.87695890        0.61905222       -2.22864935
 C            1.96078008       -2.96224424       -2.22230319
 C            2.37870972       -1.69423005       -2.78466751
 C           -0.45362852       -3.03528649       -1.81726396
 C            0.61216838       -3.17044144       -2.70909744
 C           -2.58513420       -1.92318024       -1.37413315
 C           -1.68947109       -2.60609424       -2.28767559
 C           -3.33112360        0.43008115       -1.59593582
 C           -3.29556367       -0.91260613       -2.12942685
 C           -1.73199300        2.22220535       -1.95836471
 C           -0.39153524        2.21464325       -2.36458355
 C           -2.61892771        1.29920592       -2.50980807
 C            1.25285731        0.80928011       -3.46675310
 C           -0.00755978        1.52821439       -3.50687195
 C            1.67227558       -1.56899507       -4.04364135
 C            0.55542792       -2.50533952       -3.99849197
 C            1.15524291       -0.27753737       -4.41877581
 C           -1.78990526       -1.95536065       -3.59101383
 C           -2.71414444       -0.84483236       -3.45767734
 C           -2.22797701        0.51053918       -3.66473267
 C           -0.96929489        0.70058139       -4.21546927
 C           -0.64760716       -1.78619388       -4.36333720
 C           -0.24989778       -0.44251959       -4.75591526
