   70
C70 / DATE: 7/ 1/2024 / Origin: Program Fullerene / C70 from database
 C            1.53007837       -0.02095261        4.65460400
 C            0.74443529       -1.20988687        4.38718532
 C            1.36214733       -1.92732088        3.28391779
 C            2.65441589       -0.02222204        3.73814505
 C            2.57741428       -1.21623376        2.92412388
 C            2.66862272        1.25266454        3.05486103
 C            0.70141666        1.12878040        4.33207310
 C            1.40344200        1.91492750        3.34563677
 C           -0.63388668       -0.79207159        4.23808981
 C           -0.61919015        0.64401542        4.00260117
 C           -1.45116498       -1.56786786        3.43446120
 C            0.53902822       -2.43051362        2.27362933
 C           -0.82658335       -2.51976345        2.52449978
 C            0.99856237       -2.43411395        0.95008850
 C            2.89954417       -1.10719311        1.58203949
 C            2.29325649       -1.98322314        0.68801201
 C            3.13712990        1.29445746        1.74543125
 C            3.44408010        0.08962805        1.10191302
 C            2.74841811        2.38471734        0.97343931
 C            0.69613425        2.47312810        2.28574545
 C            1.45625824        2.99148833        1.24664923
 C           -1.26866529        1.14110260        2.87403986
 C           -0.61881127        2.05468987        2.02244937
 C           -2.50000376       -0.90900026        2.68042640
 C           -2.39095661        0.45098950        2.41443754
 C           -1.74133226       -2.72088956        1.42152538
 C           -2.86050546       -1.80776385        1.60148197
 C            0.10981937       -2.66663441       -0.11462721
 C           -1.24541328       -2.91433763        0.14026411
 C            0.56123473       -2.56312140       -1.43902571
 C            2.81319992       -2.08537172       -0.59193872
 C            1.91737910       -2.37265304       -1.69431237
 C            3.89874518        0.12559346       -0.21373125
 C            3.74948891       -1.06700412       -1.02994844
 C            2.94205952        2.36147953       -0.46656377
 C            3.56691165        1.27186353       -1.04627993
 C            0.83017479        3.29628261       -0.02021003
 C            1.74501103        2.90521276       -1.08295404
 C           -1.25976170        2.47284592        0.84577379
 C           -0.52705477        3.06715817       -0.18909598
 C           -3.12898971        0.97771367        1.36681966
 C           -2.58234085        2.09455981        0.62323010
 C           -3.48466141       -1.29666918        0.46905344
 C           -3.76257107        0.07311986        0.41527634
 C           -2.16332396       -2.83543674       -0.90132617
 C           -3.35582548       -2.02148012       -0.71265240
 C           -0.35328186       -2.37782867       -2.47844487
 C           -1.69829187       -2.63539899       -2.25742208
 C            0.00548592       -1.60256098       -3.57983212
 C            2.32071134       -1.54725370       -2.82411426
 C            3.36159174       -0.64942099       -2.36409754
 C            3.07688965        0.77385022       -2.31893879
 C            1.33471640       -1.03091392       -3.64800031
 C            1.22275430        2.33294520       -2.24190971
 C            1.86278214        1.23354014       -2.83134554
 C            1.17093549        0.41481120       -3.72674564
 C           -1.00738186        3.02725570       -1.49589674
 C           -0.10189805        2.62785491       -2.56225164
 C           -3.09973436        2.01632786       -0.73311529
 C           -3.83549408        0.76770710       -0.86402518
 C           -2.31624232        2.47120516       -1.78192335
 C           -3.68093456       -1.39925796       -1.98140976
 C           -2.69358370       -1.83487062       -2.95385722
 C           -3.77345524        0.04477327       -2.04910374
 C           -0.91870363       -0.59641554       -4.07698270
 C           -0.22298663        0.68117259       -4.04157750
 C           -0.84245225        1.78941368       -3.48709783
 C           -2.21354609        1.69316210       -3.00752887
 C           -2.25416136       -0.67107398       -3.70228572
 C           -2.91108569        0.49628267       -3.13135208
