   70
C70 / DATE: 7/ 1/2024 / Origin: Program Fullerene / C70 from database
 C            1.20600128        0.07822293        4.16084249
 C            2.46226478       -0.25939170        3.53770775
 C            2.44800440       -1.69067987        3.28690184
 C            0.39816607       -1.13315033        4.20683707
 C            1.07186016       -2.13381381        3.41420292
 C           -0.94687922       -0.76383984        3.84154211
 C            0.38683523        1.10937138        3.55796441
 C           -0.98554276        0.68317947        3.72480179
 C            0.75377304        1.68379975        2.34220291
 C            2.81241983        0.38728455        2.29073879
 C            1.92842499        1.28492710        1.68762057
 C            3.12816424       -1.91948518        2.02890199
 C            3.45519507       -0.61783363        1.46455880
 C            2.62122977       -2.89180614        1.18273593
 C            0.43253875       -2.67592947        2.29775978
 C            1.22530017       -3.29265138        1.32754302
 C           -1.62635427       -1.50799864        2.88730705
 C           -0.88786681       -2.29847753        1.98342135
 C           -2.86388275       -1.00043767        2.50985056
 C           -1.95094247        1.23754396        2.89684114
 C           -3.04756715        0.44209525        2.56139058
 C           -0.23023998        2.35558941        1.61896649
 C           -1.57249678        2.25682648        2.02387782
 C            0.09730292        2.91953068        0.38406315
 C            2.07769643        1.54284432        0.32228365
 C            1.21341387        2.44167987       -0.31693787
 C            3.41775783       -0.45371841        0.08579173
 C            2.96965824        0.76533343       -0.42324974
 C            2.89424307       -2.77741573       -0.23621786
 C            3.41231412       -1.58555021       -0.73668028
 C            0.69185216       -3.50075905       -0.00471315
 C            1.79759799       -3.41749436       -0.94098899
 C           -1.39967633       -2.58586424        0.70302262
 C           -0.52533146       -2.92351389       -0.32613942
 C           -3.49673806       -1.48527887        1.30779454
 C           -2.67874314       -2.17691055        0.34412476
 C           -3.90988975        0.82635090        1.45322511
 C           -4.12163403       -0.35636412        0.63734484
 C           -2.56954385        2.85579202        1.26374842
 C           -3.67631695        2.03295847        0.81030501
 C           -0.81314773        3.76667757       -0.24325368
 C           -2.20152412        3.71985923        0.16070372
 C           -0.81610236        3.83865119       -1.68511080
 C            1.32805756        2.67154852       -1.69961508
 C            0.21058660        3.11749100       -2.39417207
 C            3.15131043        1.03343329       -1.76889547
 C            2.20775259        1.89577750       -2.44279577
 C            3.43796997       -1.41813897       -2.11830043
 C            3.43921247       -0.07381965       -2.66282711
 C            1.54446538       -3.03929510       -2.25081554
 C            2.53102184       -2.21678347       -2.92759104
 C           -0.74178715       -2.39814045       -1.60460006
 C            0.23144491       -2.51095920       -2.58722320
 C           -2.85091754       -1.52475553       -0.94217429
 C           -3.66507627       -0.34363903       -0.74378415
 C           -1.75486183       -1.46423501       -1.78794023
 C           -3.60797626        2.04110787       -0.63936933
 C           -2.97464191        3.29216802       -0.99829315
 C           -2.09352716        3.31445723       -2.14072848
 C           -3.26459213        0.86243346       -1.30761957
 C           -0.44668420        2.16957643       -3.28058618
 C           -1.47672799       -0.28763802       -2.49113119
 C           -1.81473389        2.06662103       -2.82497315
 C           -2.24052434        0.86540744       -2.26668853
 C            1.64177987        1.13184637       -3.54031248
 C            2.47171059       -0.03174205       -3.74953648
 C            1.82271728       -1.31980216       -3.82328000
 C            0.40654487       -1.40003425       -3.50718565
 C            0.25555136        1.01443262       -3.59275686
 C           -0.32966950       -0.22747122       -3.30043740
