   70
C70 / DATE: 7/ 1/2024 / Origin: Program Fullerene / C70 from database
 C            1.23260391        0.01484733        4.30161913
 C            2.49492977       -0.26073302        3.65907974
 C            2.41212895       -1.58960923        3.07246264
 C            0.38965435       -1.15899364        4.13763423
 C            1.04295593       -2.04020700        3.19433719
 C           -0.94796384       -0.69908851        3.82614955
 C            0.46679649        1.16406585        3.86341069
 C           -0.92714700        0.75602961        3.80105120
 C            0.96454113        2.01251739        2.87641599
 C            2.95689505        0.63913006        2.62256150
 C            2.21587603        1.77077750        2.28301784
 C            2.99606614       -1.52069328        1.74968785
 C            3.51047944       -0.18029536        1.55702463
 C            2.34160459       -2.11680634        0.68424380
 C            0.35221454       -2.40691400        2.04482827
 C            1.05410359       -2.64538412        0.85573577
 C           -1.68298518       -1.36127681        2.85164026
 C           -1.03860922       -2.28331762        2.01585833
 C           -2.83873646       -0.73011377        2.40719753
 C           -1.79742922        1.42562527        2.93981693
 C           -2.87954335        0.72372069        2.41067095
 C            0.06714470        2.89532078        2.28119208
 C           -1.35552517        2.58190131        2.29914401
 C            0.37504088        3.50693869        1.00147637
 C            2.56802785        2.42970510        1.10702015
 C            1.60998984        3.28241462        0.42465433
 C            3.54241356        0.33438550        0.26374989
 C            3.31148703        1.69989670        0.08966968
 C            2.77160244       -1.79148050       -0.59433189
 C            3.35270309       -0.53228576       -0.81887283
 C            2.29613360       -2.56222965       -1.64592401
 C            0.38082900       -3.19206743       -0.24589880
 C            1.00185407       -3.19815579       -1.49663211
 C           -1.73742450       -2.86691171        0.96676169
 C           -1.00778414       -3.30780887       -0.20841721
 C           -3.51729793       -1.20217502        1.21434831
 C           -2.99354597       -2.28447572        0.52294688
 C           -3.48804738        1.15171327        1.15978515
 C           -3.99672296       -0.03790778        0.48678252
 C           -1.90979864        2.95720156        1.00599668
 C           -0.81754568        3.43624725        0.17428828
 C           -2.91004925        2.18603228        0.42461383
 C           -0.73107859        3.00364662       -1.14820495
 C            1.67743806        2.97626441       -0.99271600
 C            2.88885834        2.20460057       -1.20812282
 C            0.51111372        2.63920030       -1.67949241
 C            3.40581256        0.00357351       -2.10571089
 C            2.95971609        1.36748836       -2.30803371
 C            2.40229610       -2.08714090       -3.00969411
 C            2.93264827       -0.76396443       -3.24083950
 C            0.21220941       -2.85315533       -2.67097708
 C            1.07357028       -2.14230183       -3.59551855
 C           -1.77400479       -2.91618539       -1.38111559
 C           -3.00525466       -2.29076877       -0.93153146
 C           -1.09016724       -2.40631117       -2.47944138
 C           -4.06474032       -0.06840518       -0.89975210
 C           -3.50406510       -1.19795443       -1.62742097
 C           -3.04572862        2.21251663       -0.96184943
 C           -1.89765358        2.57940369       -1.77813269
 C           -3.74740230        1.13679476       -1.63898811
 C           -1.47065906       -1.16643749       -3.00815651
 C           -2.74905150       -0.67655216       -2.75434651
 C           -1.80713807        1.62784958       -2.86977977
 C           -2.96575225        0.75720071       -2.80372668
 C            0.57785506        1.74713373       -2.75540481
 C            1.81854328        1.29951422       -3.20228726
 C            1.89624208        0.02384917       -3.89276703
 C            0.70140192       -0.79616959       -3.97333892
 C           -0.57147294        1.07166051       -3.16192877
 C           -0.49545623       -0.28488990       -3.48751900
