   70
C70 / DATE: 7/ 1/2024 / Origin: Program Fullerene / C70 from database
 C            1.53417661        0.04376242        4.93177493
 C            0.74172399       -1.15272319        4.70339661
 C            1.56530599       -2.06730623        3.95044680
 C            2.65010544        0.00824822        4.00218082
 C            2.75194326       -1.34283495        3.50802749
 C            2.46414011        1.07852806        3.04253421
 C            0.70771968        1.18224564        4.58098849
 C            1.36127606        1.90293912        3.50212512
 C           -0.52997544       -0.73971987        4.13600154
 C           -0.63740378        0.69499177        4.34838478
 C           -0.96396424       -1.28713113        2.92209677
 C            0.99839902       -2.69650325        2.77700218
 C           -0.30354164       -2.39658897        2.36996222
 C            2.86681621       -1.55022354        2.07633812
 C            2.03336965       -2.68715512        1.76596082
 C            2.56969245        0.82307869        1.67733562
 C            2.83588516       -0.46844343        1.19988194
 C            2.03873841        1.76067038        0.79909615
 C            0.55655937        2.51774795        2.54716906
 C            1.02242891        2.61847389        1.23693481
 C           -1.43122550        1.42548333        3.48333834
 C           -0.81889929        2.52326768        2.75071178
 C           -1.89519221       -0.57949179        2.15192558
 C           -2.24927903        0.71159345        2.52188711
 C           -2.23659891       -1.03942974        0.88122115
 C           -0.67375712       -2.84033540        1.09797666
 C           -1.82255622       -2.31382610        0.50582718
 C            1.61705878       -2.85167535        0.45945644
 C            0.33821131       -3.34600977        0.27529423
 C            2.60688872       -0.74037646       -0.15261084
 C            2.12226881       -2.00484328       -0.52651000
 C            2.26377255        1.60299697       -0.56396743
 C            2.53282553        0.32300390       -1.05156370
 C            1.84695127        2.61425091       -1.42482652
 C            0.24598042        3.29110534        0.29054689
 C            0.81009755        3.52036074       -0.96452049
 C           -1.68509838        2.79645791        1.62258085
 C           -2.59324800        1.66513207        1.48820749
 C           -1.14731459        3.33615513        0.46123149
 C           -2.70941621       -0.14569123       -0.09439303
 C           -2.88910943        1.20993067        0.20820775
 C           -2.77599824       -0.55723129       -1.42665117
 C           -2.24352406       -2.83001969       -0.71612325
 C           -2.75631730       -1.91312747       -1.71844726
 C            0.01884617       -3.79139718       -0.99392501
 C           -1.37105095       -3.76949365       -1.39109104
 C            1.72077255       -2.23994662       -1.84839395
 C            0.80425864       -3.26745851       -2.10001389
 C            2.40643802        0.05030094       -2.40831033
 C            1.93062528       -1.25926833       -2.81815731
 C            1.60498459        2.32453348       -2.82862924
 C            1.80318029        1.03339041       -3.29091352
 C           -0.03681858        3.83955423       -2.09829597
 C            0.38818392        3.01634191       -3.21751043
 C           -1.97758570        3.30440917       -0.65427035
 C           -2.84069289        2.14756948       -0.82406883
 C           -1.46447855        3.68285662       -1.95240712
 C           -2.47284241        0.35432034       -2.43699403
 C           -0.75225564        2.22677833       -3.65382043
 C           -2.70403697        1.69950515       -2.19797854
 C           -1.91007232        2.68347925       -2.91060680
 C            0.94816047       -1.05996027       -3.88017788
 C            0.71514935        0.36789400       -3.98681375
 C           -1.59873062       -0.01652063       -3.46482694
 C           -0.58111598        0.86014201       -3.85056524
 C           -2.24420105       -2.32627252       -3.01227247
 C           -1.42139343       -3.50365125       -2.81637956
 C           -0.07527188       -3.17318549       -3.25138498
 C           -1.47226233       -1.36607120       -3.77958269
 C           -0.13770564       -1.91758666       -3.96904742
