   70
C70 / DATE: 7/ 1/2024 / Origin: Program Fullerene / C70 from database
 C            1.12480705        0.13398051        5.76479292
 C            0.43119154       -1.09311364        5.41245850
 C            1.44156701       -2.05914351        5.04515302
 C            2.48542876        0.02913724        5.25821755
 C            2.66700287       -1.32113530        4.76830528
 C            2.70080492        1.13031397        4.34247174
 C            0.47794598        1.22718533        5.06149048
 C            1.50214496        1.95591856        4.35246659
 C           -0.60965829       -0.76344287        4.44873927
 C           -0.62027273        0.67975988        4.28849047
 C           -0.80551849       -1.56080973        3.31464589
 C            1.18577397       -2.90749675        3.90204216
 C           -0.02088652       -2.69801954        3.11667963
 C            2.98864526       -1.53353929        3.36464369
 C            2.30440214       -2.74757047        2.98714200
 C            3.01283116        0.85032530        2.94843996
 C            2.99315258       -0.45983027        2.46769258
 C            1.23290344        2.33008766        2.97869270
 C            2.34862645        1.88063342        2.17616627
 C           -0.88447203        1.18287441        3.01996908
 C           -0.03814541        2.14061220        2.44540079
 C           -1.44840112       -0.99974697        2.20468221
 C           -1.63079362        0.38363919        2.16308173
 C           -1.48900977       -1.71655276        0.99954246
 C            0.33939933       -3.05526298        1.76016266
 C            1.76683010       -2.83084828        1.65034056
 C           -0.43883556       -2.58464898        0.71363368
 C            2.68188019       -0.67422984        1.11481317
 C            2.18012644       -1.91414920        0.69576127
 C            2.08909429        1.64294703        0.83675775
 C            2.50544620        0.43727506        0.27748735
 C           -0.17319636        2.36290457        1.07490661
 C            0.96722107        2.25570392        0.27969571
 C           -2.07984011        0.94681045        0.98178834
 C           -1.38809763        2.05080801        0.48755060
 C           -2.18924528       -1.16737101       -0.08370649
 C           -2.71355698        0.11297258        0.07126030
 C           -1.86907479       -1.60131551       -1.37869405
 C            0.19275572       -2.42654631       -0.51197199
 C            1.50534118       -1.95889937       -0.51675757
 C           -0.59819033       -2.13138651       -1.60815567
 C            2.21279592        0.23761709       -1.07145873
 C            1.85697262       -1.04266486       -1.49414400
 C            0.80973997        2.16200909       -1.10292810
 C            1.69077386        1.32059191       -1.77787504
 C           -1.57627435        2.38763946       -0.84612205
 C           -0.44439835        2.42858669       -1.67192233
 C           -3.31447708        0.72265341       -1.01937981
 C           -2.79675696        2.02331602       -1.39389971
 C           -2.59949876       -1.10883441       -2.46685866
 C           -3.45283442       -0.02546659       -2.25174771
 C           -2.15284975       -1.40240133       -3.76093990
 C            0.03869021       -1.84604678       -2.80942783
 C            1.26817003       -1.17620275       -2.75164999
 C           -0.75762379       -1.76001599       -3.94545001
 C            1.56533800        1.18798536       -3.15065587
 C            1.53211956       -0.16222595       -3.66711115
 C           -0.58566135        2.34748953       -3.06715128
 C            0.50058277        1.90425043       -3.82322802
 C           -3.01225661        2.19255322       -2.81087302
 C           -3.64928306        0.97604675       -3.28862657
 C           -1.85709164        2.42074477       -3.64638947
 C           -2.54663950       -0.56538655       -4.88573544
 C           -3.14612854        0.72278002       -4.62072499
 C           -2.13737679        1.73637186       -4.90015145
 C           -0.26344997       -1.05897166       -5.11490019
 C            0.82615976       -0.13047510       -4.93215572
 C            0.28820841        1.21311583       -5.08669225
 C           -1.36994672       -0.32613593       -5.70375341
 C           -1.05513108        1.09224623       -5.61432646
