   70
C70 / DATE: 7/ 1/2024 / Origin: Program Fullerene / C70 from database
 C            1.43454293        0.13124603        4.81321366
 C            0.64106430       -1.07799244        4.70376108
 C            1.39449058       -2.04686895        3.92797137
 C            2.64416447       -0.06037922        4.03332656
 C            2.61655890       -1.39912599        3.47139154
 C            2.76749954        1.06244334        3.12962936
 C            0.68000160        1.20778934        4.19505657
 C            1.51590089        1.80506481        3.17381358
 C           -0.67773872       -0.70281254        4.23878384
 C           -0.61212465        0.68267503        3.79847902
 C           -1.37051976       -1.61079722        3.45765249
 C            0.71576254       -2.88521700        3.04811157
 C           -0.67831187       -2.79174242        2.95255422
 C            1.44382219       -3.45484281        2.00718335
 C            3.03863961       -1.60042333        2.15578999
 C            2.59477446       -2.73729239        1.48401353
 C            3.35785513        0.84450088        1.89484395
 C            3.52540749       -0.52244902        1.41102977
 C            2.92491817        1.64835379        0.76740359
 C            0.92856210        2.19185910        1.97339480
 C            1.74831489        2.38858170        0.86327365
 C           -1.11399470        1.02455994        2.54314129
 C           -0.43886812        1.97216899        1.77086964
 C           -2.21032881       -1.11248689        2.38440681
 C           -2.05918524        0.19936978        1.93310666
 C           -1.36841162       -3.20515836        1.73656890
 C           -2.33720605       -2.17378798        1.40479206
 C            0.75466511       -4.06221987        0.88424539
 C           -0.66423827       -3.82436213        0.71720153
 C            2.47322644       -2.71378107        0.03291633
 C            1.42650864       -3.63649089       -0.33478639
 C            3.33669015       -0.50388295       -0.03535638
 C            3.14606797        0.87158458       -0.43658058
 C            2.58073613       -1.50022322       -0.63565943
 C            2.34405054        1.15929261       -1.52526375
 C            1.16181536        2.82960117       -0.32028608
 C            1.72954118        2.40049478       -1.52153154
 C           -1.00578260        2.39946512        0.57305205
 C           -0.20041133        3.12308796       -0.29955107
 C           -2.51708540        0.51917150        0.65214149
 C           -2.11966090        1.72532014        0.06485635
 C           -2.54166070       -1.80629071        0.08298229
 C           -2.99921016       -0.51206846       -0.15817194
 C           -0.87677637       -3.39392612       -0.65221798
 C            0.41866182       -3.18987853       -1.26688207
 C           -1.86848229       -2.47034464       -0.94883936
 C            1.68171781       -1.16505098       -1.66393331
 C            1.71469232        0.12186413       -2.22048111
 C            0.61373509       -2.01371615       -1.98466460
 C            0.80171973        0.46954673       -3.22804821
 C            1.16868543        2.82994159       -2.70896711
 C            0.79696864        1.80148892       -3.66133438
 C           -0.77346683        3.67133215       -1.43843551
 C            0.05540811        3.74886289       -2.62443473
 C           -2.62489449        2.08322178       -1.19058042
 C           -2.07536417        3.18278142       -1.85533372
 C           -3.42151810       -0.21562896       -1.44560539
 C           -3.40438813        1.16217346       -1.89169952
 C           -1.77453066       -1.81525178       -2.17105318
 C           -0.49424721       -1.47357928       -2.63426379
 C           -0.32301037       -0.34328789       -3.43595438
 C           -2.84693909       -1.00863160       -2.51348216
 C           -3.34559311        1.10597798       -3.34406325
 C           -1.41389850        0.11451968       -4.18077091
 C           -2.74014759       -0.16891050       -3.68347212
 C           -0.30718358        2.32323584       -4.44462167
 C           -0.78231548        3.53101155       -3.78678283
 C           -2.12576500        3.26305325       -3.31004499
 C           -1.45340803        1.47795536       -4.66920064
 C           -2.61050231        2.12530493       -4.05860379
