   70
C70 / DATE: 7/ 1/2024 / Origin: Program Fullerene / C70 from database
 C            1.52182519       -0.00288829        4.61494682
 C            0.69695187       -1.17614163        4.41983822
 C            1.33980577       -2.01461474        3.42379087
 C            2.60901031       -0.06866085        3.65312292
 C            2.42338917       -1.24553715        2.83754827
 C            2.66219332        1.20311374        2.98449673
 C            0.71251485        1.15718565        4.28050774
 C            1.48321309        1.96471000        3.37081472
 C           -0.65591341       -0.72628292        4.15730962
 C           -0.57819438        0.68984776        3.83057600
 C           -1.45350683       -1.54048685        3.37337788
 C            0.53219343       -2.74959242        2.56909498
 C           -0.85106790       -2.71201384        2.75667352
 C            1.01551750       -3.04248434        1.29870034
 C            2.48225188       -1.12889352        1.44826136
 C            1.88424635       -2.13049016        0.68014699
 C            3.02122672        1.24772923        1.64503927
 C            2.82341714        0.09922304        0.84823275
 C            2.86387755        2.49464096        1.06062802
 C            0.82847360        2.65879327        2.36097007
 C            1.66777778        3.23766447        1.42194693
 C           -1.06357002        1.13793427        2.60003490
 C           -0.43672936        2.21152135        1.93812816
 C           -2.28797670       -0.93044378        2.35667983
 C           -2.02196830        0.37113696        1.93124747
 C           -1.72401594       -3.10147236        1.65982970
 C           -2.56059764       -1.95103325        1.35785549
 C            0.26286603       -3.91090580        0.51831330
 C           -1.18400857       -3.82552402        0.60965515
 C            0.60365448       -4.08236511       -0.87695281
 C            1.93619139       -2.04488313       -0.71093673
 C            1.48833524       -3.11248927       -1.48362853
 C            2.74867131        0.21800466       -0.55407711
 C            2.16971551       -0.80619351       -1.30738997
 C            3.06771658        2.63686048       -0.35646701
 C            2.95346493        1.45349757       -1.17141965
 C            1.10945834        3.78724938        0.21307546
 C            2.09564857        3.60157862       -0.83702399
 C           -0.95503349        2.65153063        0.70765428
 C           -0.22261576        3.54966905       -0.08850312
 C           -2.45104634        0.75958867        0.66603309
 C           -2.08503399        2.01332791        0.18067842
 C           -2.73061756       -1.54505704        0.04031505
 C           -2.98869272       -0.20254337       -0.19813976
 C           -1.66943516       -3.57263839       -0.73372714
 C           -0.64139198       -4.06709897       -1.62875679
 C           -2.30164645       -2.35972366       -1.01634383
 C            0.97198411       -2.84984497       -2.81010274
 C           -0.39394919       -3.34996866       -2.85867457
 C            1.60339515       -0.50236576       -2.55389158
 C            0.94967437       -1.48095849       -3.28083230
 C            2.14262803        1.80228163       -2.32709848
 C            1.63208220        3.15120459       -2.13477661
 C            1.32028088        0.81996841       -2.86355345
 C           -0.60951980        3.77437582       -1.40679521
 C            0.31499539        3.41341097       -2.47330791
 C           -2.68344815        2.49263360       -0.98129111
 C           -1.93391640        3.38632847       -1.83275997
 C           -3.39245945        0.15734311       -1.47089807
 C           -3.35882346        1.55427976       -1.85503774
 C           -2.27240541       -1.84532764       -2.32352892
 C           -1.24719875       -2.22629515       -3.18939241
 C           -0.39208874       -1.19177333       -3.74598152
 C           -2.89044837       -0.62409045       -2.58381945
 C            0.05868079        1.14784265       -3.38100438
 C           -0.38518178        2.47017683       -3.32061903
 C           -1.79676043        2.74092190       -3.12999219
 C           -2.72174777        1.63145610       -3.16089290
 C           -0.84730434        0.12397868       -3.70398479
 C           -2.20901430        0.31007262       -3.46392252
