   70
C70 / DATE: 7/ 1/2024 / Origin: Program Fullerene / C70 from database
 C            1.55189006       -0.02095197        4.59433466
 C            0.77485384       -1.21915135        4.36026140
 C            1.33075674       -1.91255012        3.20867163
 C            2.65524119       -0.03049454        3.65584575
 C            2.50940844       -1.18179991        2.78772345
 C            2.69267577        1.27166801        3.02645095
 C            0.70351836        1.11286259        4.25968956
 C            1.39904622        1.89651063        3.27130535
 C           -0.60970274       -0.81027805        4.28762211
 C           -0.60408078        0.59884204        3.92335564
 C           -1.46342759       -1.63374288        3.58753345
 C            0.44295352       -2.40202513        2.25164085
 C           -0.87736058       -2.58454275        2.65056016
 C            0.72619807       -2.22750499        0.88871476
 C            2.73237958       -0.98477698        1.43590374
 C            1.94278129       -1.65588654        0.49838533
 C            3.20096542        1.35583574        1.73627660
 C            3.42427149        0.16074966        1.04284570
 C            2.82787137        2.47589166        1.00425307
 C            0.69992820        2.39519577        2.17720422
 C            1.48004078        2.98545273        1.19383101
 C           -1.21724739        0.98976095        2.72666800
 C           -0.53753214        1.82252700        1.82185909
 C           -2.53627568       -1.00795237        2.85642791
 C           -2.31184227        0.24497584        2.28572043
 C           -1.89161005       -2.85684265        1.65390368
 C           -3.05668080       -2.06148851        2.02192567
 C           -0.25674616       -2.49143969       -0.07720021
 C           -1.53052997       -2.93185716        0.31238426
 C           -0.00840077       -2.17974193       -1.41896494
 C            2.24743525       -1.50859705       -0.85664019
 C            1.26533776       -1.77231137       -1.82173106
 C            3.88248779        0.21567172       -0.26522276
 C            3.40056292       -0.79148695       -1.19070623
 C            3.14363387        2.53659029       -0.40938323
 C            3.85395557        1.48764539       -0.97003107
 C            0.91869353        3.24168294       -0.10761434
 C            1.97045273        3.05521664       -1.09888442
 C           -1.05327791        2.00462773        0.52416981
 C           -0.36348477        2.80706258       -0.39702046
 C           -2.91314687        0.53444979        1.06018897
 C           -2.24737130        1.36353484        0.14173133
 C           -3.93312550       -1.70251772        1.02188348
 C           -3.95299860       -0.30024398        0.63255846
 C           -2.56613295       -2.95874791       -0.62063019
 C           -3.86981712       -2.46610123       -0.20385018
 C           -1.07485912       -2.00691646       -2.30530715
 C           -2.33087625       -2.48129577       -1.96863696
 C           -0.98480282       -1.02295387       -3.28975322
 C            1.41989032       -1.32324341       -3.13701740
 C            0.27081005       -0.75394577       -3.81423151
 C            3.57089751       -0.24448034       -2.51995909
 C            3.67332816        1.20027387       -2.37862738
 C            2.56093964       -0.51561994       -3.51238831
 C            1.63248864        2.57772704       -2.36556214
 C            0.61487598        0.61803637       -4.15292977
 C            2.54027397        1.78483145       -3.07274061
 C            2.04581974        0.76333703       -3.97792696
 C           -0.73342511        2.79815677       -1.73107219
 C            0.29123096        2.60440892       -2.74898522
 C           -0.21541528        1.63477741       -3.71017197
 C           -2.71806605        1.47753969       -1.18151913
 C           -1.97265845       -0.03314615       -3.34764597
 C           -1.91071672        2.07509855       -2.13813434
 C           -1.56868696        1.29553320       -3.31606682
 C           -4.38863207       -0.25424088       -0.74414755
 C           -4.39693425       -1.61804780       -1.25133050
 C           -3.46884643       -1.67465207       -2.36206462
 C           -3.62895203        0.54660142       -1.66951380
 C           -3.20423125       -0.31150005       -2.76821859
