   70
C70 / DATE: 7/ 1/2024 / Origin: Program Fullerene / C70 from database
 C            1.65659248        0.08727877        4.78567083
 C            0.83605507       -1.10638306        4.69879092
 C            1.39489802       -1.96176509        3.66640422
 C            2.65513818        0.01329372        3.73449436
 C            2.53532916       -1.27022459        3.08031459
 C            2.52787472        1.19546224        2.91760618
 C            0.80412941        1.22956296        4.50469581
 C            1.34373865        1.91923416        3.34461638
 C           -0.54673359       -0.69030582        4.57972122
 C           -0.56690985        0.76245585        4.45798885
 C           -1.39544570       -1.45649385        3.79256730
 C            0.53723358       -2.66741812        2.82457083
 C           -0.84364140       -2.53960474        2.98564687
 C            1.04178864       -3.11813310        1.60842514
 C            2.71811073       -1.34073390        1.70149656
 C            2.20599725       -2.45255728        1.04588499
 C            2.74372737        1.08767264        1.55678724
 C            2.95006878       -0.16820937        0.96876561
 C            2.23097003        2.09878519        0.76306283
 C            0.47101270        2.40234262        2.36472376
 C            0.95242414        2.57362131        1.05847043
 C           -1.43269478        1.36424218        3.55453351
 C           -0.90353890        2.30841480        2.57880242
 C           -2.43945054       -0.80982592        3.01300669
 C           -2.45278754        0.56927394        2.88822078
 C           -1.72883120       -2.72504273        1.84651859
 C           -2.68360141       -1.62666002        1.84058269
 C            0.14014312       -3.43802734        0.51268241
 C           -1.22376651       -3.17937201        0.63165145
 C            2.06036433       -2.43223402       -0.39723824
 C            0.83029977       -3.12374454       -0.73223604
 C            3.02171850       -0.22892646       -0.42858495
 C            2.39660286       -1.28649187       -1.10177434
 C            2.71019566        2.18232643       -0.52982116
 C            3.24834975        0.96650528       -1.10896543
 C            1.90107414        2.82574951       -1.54121368
 C            0.05715405        2.83449118        0.01039492
 C            0.54798756        3.03678177       -1.28841043
 C           -1.79951628        2.29436302        1.44186243
 C           -2.69571305        1.16162256        1.58374090
 C           -1.30289450        2.56590335        0.18177539
 C           -3.01548137       -1.03837966        0.62317034
 C           -2.92914715        0.35242401        0.46885527
 C           -1.96355307       -2.92632869       -0.52016978
 C           -2.94438185       -1.85079026       -0.49984532
 C            0.09433835       -2.69661787       -1.83032191
 C           -1.28629503       -2.86184362       -1.80301449
 C            1.81846096       -1.07983900       -2.35861615
 C            0.65631194       -1.77475804       -2.71827284
 C            3.02495254        1.02908753       -2.53903519
 C            2.31544923        2.26850188       -2.81676685
 C            2.28338759       -0.04353255       -3.16145335
 C            1.30393994        1.98481832       -3.81376676
 C            1.39404317        0.56306483       -4.13384812
 C           -0.34884674        3.07610337       -2.36219282
 C            0.05770098        2.58036560       -3.67213234
 C           -2.03744273        2.12258798       -0.90552934
 C           -2.72366509        0.90402332       -0.80526821
 C           -1.71862409        2.65211425       -2.14243689
 C           -2.97765996       -1.25815679       -1.82041564
 C           -2.12005481       -2.06128379       -2.67984782
 C           -2.95617235        0.12505353       -1.94662342
 C           -0.08718017       -1.36419668       -3.82792769
 C            0.25784948       -0.13324330       -4.52285536
 C           -1.53796965       -1.45589471       -3.78146992
 C           -1.09657330        1.95645723       -4.29256588
 C           -2.19264170        1.99423442       -3.33748020
 C           -2.73206040        0.65741373       -3.21500472
 C           -0.97472625        0.59459324       -4.77558577
 C           -2.06741187       -0.17320795       -4.20581168
