   70
C70 / DATE: 7/ 1/2024 / Origin: Program Fullerene / C70 from database
 C            1.23643945       -0.14005794        4.49954729
 C            2.52991736       -0.33023392        3.87714512
 C            2.47826767       -1.59221212        3.15536774
 C            0.41320689       -1.28811466        4.14692012
 C            1.09868015       -2.01885797        3.10751556
 C           -0.91229360       -0.80270974        3.86201162
 C            0.47194444        1.05742680        4.19740128
 C           -0.90209894        0.64416505        3.99418523
 C            1.00935337        2.03573984        3.37234470
 C            3.03467732        0.68029760        2.96255686
 C            2.32278391        1.85332821        2.76448598
 C            3.16233552       -1.40346522        1.90241993
 C            3.58212537       -0.01301401        1.81303829
 C            2.64466880       -1.98867668        0.75814440
 C            0.48370046       -2.16166935        1.86246936
 C            1.27828229       -2.31706916        0.71540808
 C           -1.61415871       -1.33636044        2.78937624
 C           -0.89206796       -1.91124071        1.72886362
 C           -2.82399607       -0.71406604        2.51503177
 C           -1.73241929        1.36122568        3.13881094
 C           -2.90958258        0.71479736        2.78095519
 C            0.15037266        2.68817942        2.39793325
 C           -1.15578561        2.24849010        2.21555866
 C            2.28293511        2.43840341        1.43732655
 C            0.95639090        3.00223796        1.23224603
 C            3.58036697        0.58838630        0.55236266
 C            2.92398333        1.81631722        0.36630965
 C            3.27842728       -1.63181241       -0.41770023
 C            3.76232296       -0.26601634       -0.53580823
 C            2.69453461       -2.00990236       -1.67764552
 C            0.65967068       -2.56530092       -0.51801613
 C            1.43028663       -2.58089935       -1.69308850
 C           -1.48434685       -2.04669533        0.46763999
 C           -0.73988233       -2.58081996       -0.58367426
 C           -3.48927726       -0.96297411        1.25754392
 C           -2.77883573       -1.56183161        0.22386196
 C           -3.74789720        1.30387068        1.76284506
 C           -4.29413742        0.21318476        0.97593217
 C           -1.75939609        2.45003061        0.96968380
 C           -3.12667088        2.22895018        0.84329768
 C            0.38887745        2.94072031       -0.03775761
 C           -0.96134062        2.59291113       -0.17540937
 C            2.56806925        2.23262650       -0.91667482
 C            1.24767598        2.80870253       -1.12708166
 C            3.48656995        0.18420482       -1.88703263
 C            3.01338597       -0.96692989       -2.63952320
 C            2.88956305        1.41846936       -2.07571203
 C            2.15847573       -0.78047138       -3.71688505
 C            0.82234028       -2.73895349       -2.93357538
 C            1.19444216       -1.82903304       -4.00575910
 C           -1.38412565       -2.82151640       -1.79109288
 C           -0.60616491       -2.93210945       -3.00778695
 C           -3.21556028       -1.37028154       -1.09225573
 C           -2.55420524       -2.03258388       -2.11492308
 C           -4.37612534        0.67781232       -0.39051645
 C           -3.68488291        1.95818941       -0.46414233
 C           -3.82112485       -0.16163136       -1.43043616
 C           -1.45253903        2.21588855       -1.43504179
 C           -2.79145626        1.90422469       -1.60283866
 C           -3.12239431        0.71117560       -2.35554185
 C            0.73634942        2.29697301       -2.38426031
 C            1.80218200        1.55650868       -3.03375612
 C            1.47215716        0.49632949       -3.86705557
 C           -0.56524100        1.81919789       -2.42810845
 C           -0.02119397       -1.19101486       -4.47327465
 C           -1.13256998       -1.96090736       -3.95870247
 C           -2.20267896       -1.25522479       -3.28915185
 C           -2.14837185        0.13196143       -3.16175338
 C            0.06876182        0.21413251       -4.12188866
 C           -0.91170265        0.77959840       -3.30266963
