   70
C70 / DATE: 7/ 1/2024 / Origin: Program Fullerene / C70 from database
 C            1.30694456        0.10156912        4.23574100
 C            2.55519745       -0.18531916        3.56504227
 C            2.57085758       -1.60487487        3.26603002
 C            0.48667424       -1.10053284        4.19782916
 C            1.22804561       -2.11783435        3.48346994
 C           -0.82716658       -0.72755159        3.70828932
 C            0.49754341        1.18932848        3.73454065
 C           -0.87407289        0.71953935        3.64113102
 C            0.98022045        2.00256832        2.71439352
 C            2.86260402        0.52562915        2.33639109
 C            2.01130286        1.53265166        1.88717041
 C            3.17020726       -1.77278175        1.95548777
 C            3.35891423       -0.44750736        1.38031933
 C            2.68569992       -2.78517274        1.14214427
 C            0.60389666       -2.81079781        2.45083977
 C            1.40288326       -3.39200000        1.46704779
 C           -1.39719835       -1.45449663        2.67437218
 C           -0.75693977       -2.60684994        2.19725922
 C           -2.41088812       -0.85610624        1.92529654
 C           -1.70809066        1.33162517        2.70868199
 C           -2.53788628        0.53861971        1.90681458
 C            0.08072072        2.92479087        2.19954286
 C           -1.33584976        2.59905614        2.26002332
 C            0.33501817        3.52791381        0.90879293
 C            2.01356678        1.85811465        0.52695560
 C            1.32660959        2.99304123        0.09510970
 C            3.10422403       -0.25097885        0.02514289
 C            2.58336940        0.97557382       -0.40366014
 C            2.72335353       -2.60274431       -0.29534333
 C            3.05183581       -1.35869279       -0.82548540
 C            0.80396901       -3.85608907        0.22566322
 C            1.59811991       -3.32281686       -0.86895063
 C           -1.37459099       -3.37386139        1.21206957
 C           -0.57575411       -3.88023976        0.11012325
 C           -3.14087695       -1.62541041        1.02483322
 C           -2.64127581       -2.93511181        0.65915553
 C           -3.63758270       -1.00989266       -0.19060003
 C           -3.31606269        1.14228862        0.91728375
 C           -3.73995806        0.36831819       -0.23759227
 C           -1.97877821        3.18496726        1.09627340
 C           -0.95406998        3.87888527        0.33172534
 C           -2.96747121        2.46960443        0.43753617
 C           -1.06549906        3.97136044       -1.04865893
 C            1.34566164        3.34397315       -1.24905126
 C            0.15300641        3.93126309       -1.83770858
 C            2.50239704        1.24307862       -1.77372814
 C            1.90523675        2.42161990       -2.21669379
 C            2.79090970       -1.15717595       -2.17465518
 C            2.65758647        0.19531210       -2.67629413
 C            0.97579838       -2.78091258       -1.99051974
 C            1.75152908       -1.96159024       -2.80248279
 C           -1.18130585       -3.39909504       -1.11871367
 C           -2.52702867       -2.96936995       -0.79257441
 C           -2.99047231       -1.69158736       -1.29613195
 C           -0.41798424       -2.63620281       -1.99917442
 C           -2.16841514       -0.96288619       -2.15091547
 C           -1.01306763       -1.55374707       -2.66495876
 C           -3.24872270        1.06315056       -1.41425364
 C           -2.98931446        2.43433699       -1.01848186
 C           -2.06684653        3.17360487       -1.74448073
 C           -2.36042436        0.41743171       -2.27447064
 C           -0.13726007        3.20897246       -3.06171911
 C            1.01129611        2.38443075       -3.37076753
 C           -1.42228354        2.55788783       -2.89294298
 C           -1.50987607        1.17711180       -3.08516702
 C            1.78645661        0.13432708       -3.83564846
 C            1.10298867       -1.14586321       -3.80520008
 C           -0.31313772       -0.88969024       -3.66290950
 C            0.78476851        1.16678521       -3.99196883
 C           -0.52326235        0.53705204       -3.83661920
