   70
C70 / DATE: 7/ 1/2024 / Origin: Program Fullerene / C70 from database
 C            1.50350247        0.00006650        4.53446012
 C            0.71415427       -1.16364263        4.17445321
 C            1.48092576       -1.95250715        3.23913208
 C            2.67415380        0.02165388        3.67473630
 C            2.67610048       -1.19285736        2.89507076
 C            2.68385335        1.27957241        2.96719998
 C            0.71289995        1.18006094        4.23217137
 C            1.49762102        2.02805492        3.36314646
 C           -0.58832143       -0.70723088        3.75434106
 C           -0.58299774        0.74649236        3.75814902
 C           -1.20379081       -1.34298779        2.68845456
 C            0.81376355       -2.62101405        2.21614365
 C           -0.55294673       -2.38342324        2.00627350
 C            1.58610277       -3.04624956        1.14679396
 C            3.06032224       -1.14308527        1.55882695
 C            2.75334161       -2.25924772        0.78458119
 C            3.06168063        1.30407723        1.62742648
 C            3.26481163        0.09898035        0.93208396
 C            2.76382425        2.46525386        0.91654875
 C            0.84276393        2.77295732        2.38850501
 C            1.62272802        3.25621714        1.34336004
 C           -1.14864972        1.41303845        2.67282640
 C           -0.52787549        2.56556068        2.17417509
 C           -2.21251699       -0.65102241        2.03621202
 C           -2.07652292        0.73059450        1.87765517
 C           -3.03574232       -1.36685663        1.18407649
 C           -1.20179222       -2.96031875        0.90266716
 C           -2.55213757       -2.64901471        0.71129872
 C            0.94084616       -3.47736643       -0.07259197
 C           -0.44448479       -3.50276385       -0.15104275
 C            2.82093085       -2.19437489       -0.66375022
 C            1.69117451       -2.93529011       -1.19546913
 C            3.51620507        0.13802175       -0.44126788
 C            3.20273921       -1.01408331       -1.26963886
 C            2.79188526        2.47022250       -0.53496204
 C            3.17866186        1.32636113       -1.20570511
 C            0.98761992        3.80596939        0.16191824
 C            1.63273804        3.21213107       -1.00186554
 C           -1.17573445        3.28954229        1.17613372
 C           -0.38747561        3.97389354        0.16174972
 C           -2.61758555        1.35778510        0.75284822
 C           -2.32309850        2.69346815        0.51406643
 C           -3.63909403       -0.68572225        0.05647748
 C           -3.18509775        0.58651189       -0.26331035
 C           -3.20014131       -2.90736501       -0.55954955
 C           -3.81617352       -1.66327644       -0.99884606
 C           -0.98751782       -3.61298335       -1.43026934
 C           -2.40351244       -3.41678929       -1.64874408
 C            0.99009706       -2.46179278       -2.30385954
 C           -0.27069645       -3.00982789       -2.54374942
 C            2.47102631       -0.54646055       -2.43384394
 C            2.43334282        0.90677224       -2.37938903
 C            1.34696116       -1.23680920       -2.88561932
 C            0.85276213        2.71193950       -2.04567247
 C            1.26276771        1.56977177       -2.74502296
 C           -1.09561361        3.86842918       -1.09938382
 C           -2.34877419        3.17612772       -0.85113625
 C           -0.44182031        3.20376424       -2.21285199
 C           -2.96103065        0.92451756       -1.60484937
 C           -2.54028215        2.21369848       -1.92016296
 C           -1.44566880        2.38263586       -2.86162403
 C           -3.30528624       -1.35385464       -2.31771622
 C           -2.55302254       -2.50997175       -2.77496868
 C           -1.23941751       -2.30043908       -3.36193160
 C           -2.79332277       -0.08326402       -2.55931219
 C            0.43383978       -0.54550730       -3.67964025
 C            0.36762000        0.90641896       -3.58260402
 C           -1.03503090        1.28880456       -3.60290829
 C           -0.92163601       -1.03914871       -3.83565606
 C           -1.81895576        0.06718158       -3.54504802
