   70
C70 / DATE: 7/ 1/2024 / Origin: Program Fullerene / C70 from database
 C            1.39684760       -0.03380497        4.52342722
 C            2.66676448       -0.17841381        3.83897670
 C            2.62679900       -1.41874308        3.08473779
 C            0.56679955       -1.17337364        4.17153767
 C            1.31316935       -2.01335832        3.25725565
 C           -0.72278629       -0.67484500        3.73998792
 C            0.62021888        1.17166198        4.29970966
 C           -0.68461816        0.77728078        3.78335789
 C            1.24617900        2.28609463        3.75912518
 C            3.09992500        0.87668594        2.93964468
 C            2.48958801        2.12159796        3.00818461
 C            3.07870634       -1.14014648        1.73293816
 C            3.34266584        0.28383520        1.63328094
 C            2.42573316       -1.76522078        0.67976172
 C            0.66610699       -2.50203756        2.12820426
 C            1.41338646       -2.67829879        0.96940756
 C           -1.34285508       -1.27780325        2.65773788
 C           -0.71828724       -2.34801455        2.00990047
 C           -2.27126742       -0.52977711        1.95158369
 C           -1.27483648        1.50681498        2.74449040
 C           -2.03455676        0.83425235        1.78100297
 C            0.42758298        3.24719753        3.04601817
 C           -0.83976526        2.80447587        2.49115750
 C            2.37543489        2.90921443        1.79597656
 C            1.22182087        3.77524333        1.95398149
 C            2.94697888        0.96079637        0.48010495
 C            2.59878639        2.31512317        0.55399874
 C            2.44330564       -1.16133908       -0.57530751
 C            2.64712441        0.22274007       -0.67272131
 C            1.95269688       -1.87818231       -1.66606356
 C            0.83252073       -3.37534826       -0.07662677
 C            1.20641244       -3.03339468       -1.43703837
 C           -1.36986935       -2.93610283        0.91979682
 C           -0.60524972       -3.58440156       -0.05380397
 C           -3.08657006       -1.19866334        1.05671137
 C           -2.66452748       -2.51496171        0.61442672
 C           -3.58746432       -0.48781416       -0.10085427
 C           -2.27138593        1.42582283        0.53165091
 C           -3.03243049        0.74626983       -0.42381804
 C           -0.93419022        3.33418810        1.14293744
 C            0.34167933        3.95622703        0.81676874
 C           -1.59068018        2.59133531        0.16630234
 C            2.08115692        2.94716213       -0.57275884
 C            0.86750505        3.74437879       -0.44721895
 C            2.38557021        0.89085061       -1.87303736
 C            2.00399751        2.22423664       -1.82730884
 C            1.91695233       -1.27759166       -2.91664536
 C            2.02684651        0.16361788       -3.00251341
 C            0.91956434       -1.70276271       -3.88586796
 C            0.07589967       -3.35375874       -2.29586003
 C           -1.06094451       -3.64975518       -1.43762439
 C           -0.11021602       -2.63748470       -3.47098395
 C           -3.20414256       -2.72161556       -0.71819889
 C           -3.81067264       -1.47119986       -1.14789038
 C           -2.32286571       -3.17831103       -1.77375220
 C           -1.40289199       -2.02846400       -3.74903111
 C           -3.34659533       -1.18451820       -2.49193569
 C           -2.48216767       -2.27957856       -2.90748385
 C           -2.95048339        1.12818778       -1.76135545
 C           -3.00610456        0.12261279       -2.81403414
 C           -1.27961968        2.81658482       -1.17649633
 C           -0.02833775        3.32219797       -1.50527065
 C            0.77161549        2.61942959       -2.49117485
 C           -1.97343885        2.12350852       -2.15679496
 C            0.91501614        0.64164640       -3.81193357
 C            0.26512246       -0.51281972       -4.40427213
 C           -1.16485293       -0.67851431       -4.23807085
 C           -1.91078052        0.38025685       -3.73616191
 C            0.15148024        1.70691152       -3.33946797
 C           -1.24250541        1.60197952       -3.30470696
