   70
C70 / DATE: 7/ 1/2024 / Origin: Program Fullerene / C70 from database
 C            1.64408341       -0.23794552        4.89570035
 C            0.79311244       -1.41157486        4.95510939
 C            1.25749949       -2.34751877        3.94704879
 C            2.63098892       -0.45769031        3.85331740
 C            2.36904972       -1.74569652        3.24062035
 C            2.62966286        0.71066795        2.99398577
 C            0.82342524        0.88575219        4.47990476
 C            1.49694460        1.53708070        3.37587980
 C           -0.55014514       -1.00677276        4.57855121
 C           -0.52521057        0.40765039        4.25868367
 C            0.10852302       -2.75616415        3.16956381
 C           -1.01840995       -1.92468552        3.55475621
 C            0.27520840       -3.00131361        1.81681734
 C            2.38611210       -1.81820737        1.85132801
 C            1.48251688       -2.66153191        1.19245211
 C            2.86073970        0.53057086        1.63463343
 C            2.96809256       -0.77053085        1.13978013
 C            2.43996513        1.53488096        0.76541040
 C            0.72849183        2.07918339        2.35305553
 C            1.35821715        2.33717750        1.14483069
 C           -1.18821927        0.82037326        3.10979369
 C           -0.64912614        1.85479196        2.33471905
 C           -1.83096284       -1.42489782        2.53741145
 C           -2.09807771       -0.05508667        2.52016589
 C           -0.87034068       -3.04140690        1.04025124
 C           -1.90004535       -2.13659451        1.33394139
 C           -0.74363895       -3.56724370       -0.23193911
 C            1.58477729       -2.81011440       -0.19878393
 C            0.53542027       -3.40873939       -0.89868100
 C            3.18720701       -0.94608787       -0.21845591
 C            2.50214466       -2.03010326       -0.90147472
 C            2.80070741        1.45212920       -0.58004083
 C            3.17310875        0.21442427       -1.09473313
 C            2.35446342        2.43283142       -1.45970964
 C            0.66072464        3.04498716        0.17619971
 C            1.33431706        3.35226941       -1.00066257
 C           -1.38481903        2.32160666        1.24071963
 C           -0.74011232        3.03613330        0.22302405
 C           -2.93480189        0.44738505        1.53899359
 C           -2.63431824        1.75468739        0.98735509
 C           -2.75341851       -1.67663775        0.32050618
 C           -3.32237625       -0.41280547        0.43508176
 C           -1.79346133       -3.33929510       -1.19612101
 C           -2.73775916       -2.27660032       -0.93572726
 C            0.26711750       -3.01388746       -2.27435115
 C           -1.16884619       -3.08433898       -2.48152325
 C            2.18441403       -1.57770455       -2.24920591
 C            2.64856524       -0.20530951       -2.38433460
 C            0.98689759       -1.96490811       -2.83895916
 C            2.00708837        2.05531457       -2.82122717
 C            1.92134589        0.70379754       -3.14594047
 C            0.60926058        3.82342313       -2.16195880
 C            0.98474606        2.97865931       -3.28525736
 C           -1.49101163        3.45272347       -0.87891809
 C           -0.83204031        3.87382570       -2.10043218
 C           -3.18895143        1.79293275       -0.35482282
 C           -3.44479546        0.41900381       -0.75345242
 C           -2.64525173        2.66961007       -1.27509028
 C           -2.79846596       -1.43509124       -2.12316996
 C           -1.84197522       -1.95362465       -3.08807435
 C           -2.95880980       -0.05808827       -1.97007166
 C            0.36542598       -1.11211529       -3.75172717
 C            0.86460481        0.24447212       -3.93216483
 C           -1.09029144       -1.05988416       -3.82977875
 C           -0.23012699        2.44861000       -3.87297915
 C           -1.35611415        3.05439689       -3.18344192
 C           -2.38927268        2.19652219       -2.62302583
 C           -2.35119157        0.82504665       -2.87118494
 C           -0.28748564        1.09965250       -4.19061037
 C           -1.47509646        0.33762378       -3.84156023
