   70
C70 / DATE: 7/ 1/2024 / Origin: Program Fullerene / C70 from database
 C            1.23154134        0.12992099        4.70869497
 C            2.46874923        0.01273859        3.96886872
 C            2.51601635       -1.33734012        3.44145072
 C            0.41477041       -1.03234397        4.37575688
 C            1.16547904       -1.84745122        3.44088172
 C           -0.89161079       -0.55061798        3.98105448
 C            0.41976494        1.30804397        4.49292946
 C           -0.94694681        0.85662834        4.30873077
 C            0.73080217        2.18016126        3.37171054
 C            2.71054057        0.91319081        2.85076809
 C            1.72612312        1.81835525        2.46532440
 C            3.19384246       -1.26934818        2.17202626
 C            3.38537718        0.13381445        1.83529649
 C            2.77249564       -2.10058026        1.14884216
 C            0.59417283       -2.18675582        2.21530168
 C            1.42690947       -2.51671517        1.13866383
 C           -1.42199340       -0.94767489        2.76119013
 C           -0.74991888       -1.89168030        1.97267134
 C           -2.43043852       -0.17113470        2.18907607
 C           -1.56603061        1.74504556        3.34549967
 C           -0.53843815        2.65874306        2.86333004
 C           -2.44701273        1.21266433        2.40924655
 C           -0.61976073        3.08953232        1.54484636
 C            1.55292208        2.11670491        1.11104772
 C            0.50531567        2.96413383        0.72472914
 C            3.26613971        0.49427547        0.49512778
 C            2.33683273        1.47868313        0.13447658
 C            3.40016364       -1.87225807       -0.06237222
 C            3.60293145       -0.48412742       -0.44241110
 C            2.95702830       -2.60080553       -1.22184611
 C            0.84198914       -2.96236569       -0.05585310
 C            1.64895822       -3.20886448       -1.16767082
 C           -1.33975855       -2.32398313        0.78457188
 C           -0.54611262       -2.88326140       -0.22216809
 C           -3.15434213       -0.71345963        1.13602099
 C           -2.63783737       -1.90692870        0.49133194
 C           -3.67986044        0.15729136        0.09623689
 C           -2.82419116        2.05848420        1.37117263
 C           -1.88192046        3.08293152        0.95755448
 C           -3.45113697        1.51837338        0.17847543
 C           -2.00990120        3.25926227       -0.47547023
 C           -2.90259032        2.21857156       -0.97121814
 C            0.42736689        3.39590439       -0.59784722
 C           -0.88072433        3.58950234       -1.20722509
 C            2.04594507        1.67931791       -1.21674966
 C            1.28840442        2.77937285       -1.58834865
 C            3.16451538       -0.34554984       -1.81855536
 C            2.96291542       -1.67961219       -2.34592788
 C            2.24370888        0.64208751       -2.12899536
 C            1.09120267       -3.07338006       -2.49800805
 C            1.76700545       -1.94105121       -3.11883131
 C           -1.11378433       -3.18289671       -1.46563226
 C           -0.27799802       -3.19566039       -2.65552572
 C           -3.09782630       -1.88415433       -0.88369800
 C           -3.49750061       -0.51551807       -1.17646323
 C           -2.39199231       -2.59661348       -1.83649376
 C           -2.56878115        1.51156206       -2.12747667
 C           -2.91580943        0.16061341       -2.25085421
 C           -0.80070036        3.15380102       -2.58741301
 C            0.56778181        2.73986167       -2.84617851
 C           -1.67277483        2.08109546       -3.03245619
 C            1.32763514        0.43346897       -3.16851925
 C            1.00540382       -0.86822896       -3.57437134
 C            0.51688070        1.48744174       -3.57842759
 C           -0.87732374        1.22276868       -3.88939085
 C           -0.92713038       -2.36594653       -3.65491224
 C           -2.24697850       -2.01882026       -3.15997181
 C           -2.41962236       -0.58368112       -3.32004856
 C           -0.27110863       -1.13647806       -4.06465356
 C           -1.27777423       -0.08906070       -4.07092162
