   70
C70 / DATE: 7/ 1/2024 / Origin: Program Fullerene / C70 from database
 C            1.35326306       -0.14322939        4.30763482
 C            2.58942742       -0.40535735        3.60593800
 C            2.48495693       -1.71478352        2.98225002
 C            0.49665334       -1.30971258        4.15378585
 C            1.14377214       -2.21493803        3.22296226
 C           -0.83916318       -0.83159826        3.84012759
 C            0.57013049        1.01631607        3.92574547
 C           -0.82114074        0.61052435        4.01114648
 C            0.98184777        1.81174965        2.85263286
 C            3.01237828        0.52548430        2.58206788
 C            2.28882501        1.69509566        2.35196413
 C            2.94322538       -1.59237964        1.60593088
 C            3.45385990       -0.24968944        1.43391927
 C            2.17179092       -2.14443052        0.59566967
 C            0.41450716       -2.69081720        2.14144761
 C            1.08454588       -2.94158460        0.94472555
 C           -1.51011104       -1.37873992        2.74715350
 C           -0.96871824       -2.49842193        2.11720160
 C           -2.47905836       -0.61751795        2.08393873
 C           -1.76758033        1.36315077        3.34177873
 C           -2.75551440        0.67060569        2.53521235
 C            0.01705145        2.53852810        2.14204631
 C           -1.31325979        2.49098807        2.55044696
 C            0.33159803        3.08522910        0.89783623
 C            2.65413324        2.43456025        1.23211105
 C            1.66789277        3.27417390        0.58248402
 C            3.38932760        0.35471045        0.18422818
 C            3.37930440        1.74567576        0.17721688
 C            2.24280708       -1.60876796       -0.69170227
 C            2.81884142       -0.34083768       -0.89569114
 C            1.58396402       -2.27000685       -1.73476919
 C            0.42290207       -3.63885396       -0.05180544
 C            0.66153411       -3.27160924       -1.43513112
 C           -1.70973562       -3.12646753        1.12520610
 C           -0.99864548       -3.88024355        0.10925506
 C           -2.97921220       -1.04982984        0.84752634
 C           -2.76138353       -2.37282190        0.46531112
 C           -3.45062984       -0.12123903       -0.09416483
 C           -3.27772223        1.64218321        1.60081918
 C           -2.35439613        2.76735027        1.58051463
 C           -3.49884150        1.22940395        0.23308609
 C           -0.62942736        3.11022927       -0.12141161
 C           -1.97349918        3.00316843        0.20141038
 C           -2.82054711        2.17836937       -0.63709124
 C           -0.24793574        2.89935906       -1.44656926
 C            2.05726788        3.40309326       -0.80962853
 C            3.13028639        2.45032254       -1.05672376
 C            1.05346079        3.19622757       -1.83518559
 C            2.70539823        0.29133274       -2.14405926
 C            2.76620637        1.68225337       -2.22482116
 C            1.67890063        2.39820521       -2.87059998
 C            1.50267309       -1.67444193       -2.98599934
 C            2.12361068       -0.38595503       -3.20914483
 C            0.22538905       -1.68931338       -3.68584435
 C           -0.61938679       -3.27285386       -2.12561895
 C           -1.64528982       -3.64002629       -1.16722115
 C           -2.75053615       -2.73141171       -0.94469348
 C           -0.87172826       -2.27034114       -3.05650867
 C           -3.41697854       -0.43436795       -1.44988714
 C           -3.00222384       -1.75319989       -1.89040846
 C           -2.09034695       -1.58094462       -3.01667091
 C           -2.32950945        1.72433747       -1.85879206
 C           -1.07676860        2.16341975       -2.30274186
 C           -2.86229061        0.54282888       -2.37280078
 C           -2.16058964       -0.18046041       -3.41918845
 C            0.86935505        1.70316330       -3.75198102
 C            1.27406542        0.36028690       -4.12488666
 C            0.07155365       -0.41667891       -4.36261432
 C           -0.56469210        1.66902096       -3.50484958
 C           -1.06984433        0.41252540       -4.03352535
