   70
C70 / DATE: 7/ 1/2024 / Origin: Program Fullerene / C70 from database
 C            1.48774873        0.04898567        4.43248453
 C            0.69237556       -1.13884421        4.17354855
 C            1.47343024       -2.01799180        3.33598557
 C            2.65584210       -0.00793018        3.57262145
 C            2.72792616       -1.34391716        3.02718134
 C            2.58910025        1.09634268        2.63927979
 C            0.70243449        1.19648156        4.02578663
 C            1.43461826        1.90228787        2.98967987
 C           -0.60194908       -0.71469661        3.69164245
 C           -0.63765126        0.73593109        3.70762576
 C           -1.16504236       -1.36304704        2.60264387
 C            0.84291458       -2.72806317        2.31559065
 C           -0.47183223       -2.39398689        1.94577372
 C            1.67584517       -3.33646054        1.37750417
 C            3.24521797       -1.51723324        1.75098435
 C            2.98751201       -2.75079993        1.16438232
 C            2.84117837        0.83841967        1.29688566
 C            3.40247272       -0.38947938        0.92617992
 C            2.26961333        1.66660755        0.32285853
 C            0.69339797        2.47614929        1.96787550
 C            1.23615099        2.54731831        0.68412014
 C           -1.31148913        1.38700445        2.67918357
 C           -0.69160555        2.49126040        2.10108669
 C           -2.20938156       -0.72327978        1.94251411
 C           -2.24294027        0.67407743        1.91571992
 C           -2.94420773       -1.45096594        1.02425263
 C           -0.99855588       -2.90322141        0.75290613
 C           -2.32018460       -2.61535839        0.42301708
 C            1.14974192       -3.70304896        0.07593605
 C           -0.12692242       -3.28611995       -0.26625127
 C            3.37436630       -2.99150621       -0.20789790
 C            2.21999369       -3.54587305       -0.89699252
 C            3.82970170       -0.54878780       -0.38856172
 C            3.86120655       -1.87411517       -0.98408231
 C            2.62396232        1.50082481       -1.02180982
 C            3.33285206        0.36306674       -1.40111477
 C            1.85182519        2.10747047       -2.00564886
 C            0.51656717        3.23999136       -0.29535640
 C            0.84672961        3.08004205       -1.63580526
 C           -1.41943250        3.24744114        1.20287336
 C           -0.72985898        3.77026223        0.03849905
 C           -2.92671718        1.34827587        0.89427184
 C           -2.68407206        2.71481690        0.73760685
 C           -3.69768843       -0.75540809       -0.00035694
 C           -3.60693851        0.62875368       -0.10103534
 C           -2.70457708       -2.64727677       -0.97537639
 C           -3.61619931       -1.54594413       -1.21721075
 C           -0.35720562       -2.83994493       -1.56950851
 C           -1.65534338       -2.58376425       -1.97274257
 C            1.97085311       -2.73073332       -2.07256420
 C            3.08686768       -1.82498840       -2.21309327
 C            2.79854343       -0.43946838       -2.49202351
 C            0.68362596       -2.24600743       -2.27494270
 C            1.28782319        1.26582004       -3.05082975
 C            1.55335961       -0.09228091       -3.00055751
 C            0.47996167       -0.98763503       -2.86287270
 C           -0.20565889        3.00340291       -2.63980604
 C           -0.05593786        1.72422733       -3.31486504
 C           -1.73292369        3.96695947       -0.99633797
 C           -2.97433877        3.37466051       -0.51977695
 C           -1.47822164        3.46008396       -2.33159629
 C           -3.83424201        1.19880395       -1.35703580
 C           -3.53892986        2.59630737       -1.59513976
 C           -2.62291731        2.65720477       -2.72545561
 C           -3.20269613       -0.88743553       -2.44309407
 C           -1.89656162       -1.41763358       -2.80331469
 C           -0.83746291       -0.54515657       -3.07209966
 C           -1.10313232        0.81114570       -3.30087333
 C           -3.41653205        0.47486941       -2.54593352
 C           -2.40640988        1.29310748       -3.18653834
