   70
C70 / DATE: 7/ 1/2024 / Origin: Program Fullerene / C70 from database
 C            1.28422542       -0.02608331        4.35076434
 C            2.57447180       -0.29667165        3.76453479
 C            2.57412438       -1.68020258        3.32376937
 C            0.45784790       -1.21536311        4.18033218
 C            1.20324347       -2.15723804        3.37974569
 C           -0.83444260       -0.77574663        3.70709142
 C            0.51699640        1.09784672        3.85246145
 C           -0.86624450        0.66511602        3.86808649
 C            0.97840400        1.84052288        2.76018029
 C            3.00899822        0.51419140        2.64774893
 C            2.26964300        1.62630448        2.24908328
 C            3.27173150       -1.74382427        2.05142873
 C            3.52858618       -0.37691523        1.62194539
 C            2.82561286       -2.65790243        1.11434081
 C            0.63785829       -2.68139686        2.22050312
 C            1.50578323       -3.24664545        1.29387624
 C           -1.37057180       -1.32647709        2.54672975
 C           -0.63222425       -2.25989255        1.79544289
 C           -2.46633699       -0.68193764        1.96930339
 C           -1.78059241        1.38421553        3.12294247
 C           -2.69931324        0.66216402        2.25751396
 C            0.05311865        2.61269795        2.04226554
 C           -1.30287472        2.52157101        2.36130775
 C            0.44019772        3.30250900        0.88946306
 C            2.62075449        2.19539747        1.03244571
 C            1.72412909        3.12939222        0.38633236
 C            3.36703598       -0.01426296        0.28210560
 C            3.18741645        1.33649413        0.00099622
 C            2.93185993       -2.31620106       -0.28737661
 C            2.96478458       -0.97329351       -0.65794644
 C            1.01611861       -3.60699689       -0.01947508
 C            2.04007122       -3.22087907       -0.98163089
 C           -1.14894059       -2.73280365        0.57907261
 C           -0.32180937       -3.39927088       -0.33395851
 C           -3.06265144       -1.22680111        0.84256639
 C           -2.43379639       -2.35858845        0.19424842
 C           -3.55057756       -0.33263605       -0.19728887
 C           -3.07431462        1.56212795        1.17665614
 C           -2.29743229        2.78043990        1.33817871
 C           -3.29220925        1.03368155       -0.09430095
 C           -0.53008767        3.88116992        0.06979910
 C           -1.92238342        3.49182672        0.21606740
 C           -0.26670898        4.01219446       -1.35342208
 C            1.92453074        2.99323715       -1.04920163
 C            2.60581249        1.73130147       -1.26553615
 C            0.90310524        3.35839811       -1.90941684
 C            2.35037596       -0.57814647       -1.85609917
 C            2.01875352        0.76059804       -2.06550472
 C            1.64949929       -2.90308806       -2.26951153
 C            1.85954609       -1.54100088       -2.73604892
 C           -0.69568961       -3.49357404       -1.67490952
 C            0.32379091       -3.31030320       -2.69262227
 C           -2.78028704       -2.30187298       -1.21584038
 C           -3.40942696       -1.01433273       -1.47022100
 C           -1.90357767       -2.83932011       -2.14521776
 C           -3.06259415       -0.28367856       -2.59595994
 C           -2.93235999        1.77210950       -1.22929809
 C           -2.39127817        3.04969713       -1.08409189
 C           -1.43489230        3.52594298       -2.06833239
 C           -2.84963016        1.14935107       -2.47628857
 C            0.44471540        2.40077377       -2.90328108
 C            0.94988825        1.09880921       -2.90543127
 C           -0.98165225        2.60859295       -3.09597719
 C           -1.77445439        1.51123761       -3.39114729
 C            0.75263232       -1.19346353       -3.60907882
 C           -0.16312324       -2.32231777       -3.63531220
 C           -1.56678666       -2.08808257       -3.34771533
 C           -2.06383718       -0.80325195       -3.51746538
 C            0.22936289        0.09367675       -3.55442311
 C           -1.13192461        0.27687424       -3.79999814
