   70
C70 / DATE: 7/ 1/2024 / Origin: Program Fullerene / C70 from database
 C            1.57790944        0.05112803        4.47144754
 C            0.76637963       -1.13483986        4.28005089
 C            1.55688721       -2.06371468        3.50827242
 C            2.65630330        0.00509909        3.49581820
 C            2.64937698       -1.30870322        2.90963142
 C            2.50888751        1.14085896        2.61523061
 C            0.75394694        1.19451189        4.14657490
 C            1.48933970        1.99803436        3.19277714
 C           -0.50841350       -0.73090670        3.72626151
 C           -0.55481011        0.71863509        3.73870691
 C           -0.96995596       -1.41528429        2.60996686
 C            0.89996333       -2.95727205        2.67654132
 C           -0.43088899       -2.67358437        2.32083517
 C            1.71401231       -3.57511621        1.73791337
 C            2.84808421       -1.44475591        1.53907296
 C            2.67743184       -2.73300431        1.04967255
 C            2.50729667        0.95177497        1.22880309
 C            2.57087415       -0.35053620        0.69609035
 C            2.01682847        1.99903989        0.44087628
 C            0.75126222        2.76081706        2.31008855
 C            1.33486428        3.04068552        1.08545931
 C           -1.16211628        1.38767944        2.68509908
 C           -0.63657179        2.62900980        2.33747850
 C           -1.69291141       -0.72857524        1.62673591
 C           -1.84668277        0.66175817        1.70460852
 C           -2.13852092       -1.41123386        0.49188643
 C           -1.06450352       -3.44793759        1.35299999
 C           -1.93315600       -2.78669479        0.39375823
 C            1.12703016       -4.47675522        0.77594626
 C           -0.31186447       -4.46975595        0.64288808
 C            2.49849975       -2.94641878       -0.36534249
 C            1.70133068       -4.15565337       -0.51921318
 C            2.19457243       -0.57078856       -0.64254239
 C            2.23528245       -1.86110964       -1.18824034
 C            1.84988130        1.80480559       -0.93183743
 C            1.77802239        0.50692666       -1.43677980
 C            1.42791832        2.86706911       -1.72865383
 C            0.75046036        4.05513885        0.34269980
 C            0.92540063        4.06645343       -1.09179904
 C           -1.37133493        3.41920808        1.46803221
 C           -0.64179278        4.35406214        0.62641324
 C           -2.40810509        1.35923912        0.62805271
 C           -2.35479191        2.75783952        0.62981955
 C           -2.46876205       -0.69051012       -0.65787073
 C           -2.72893641        0.68048300       -0.55181109
 C           -2.32454822       -1.29535796       -1.91775502
 C           -1.67266680       -3.36053082       -0.91411314
 C           -0.62098337       -4.35361433       -0.76995677
 C            0.62622435       -4.16052397       -1.49233801
 C           -1.64631779       -2.50746943       -2.00751625
 C            1.60932365       -2.11300711       -2.40395931
 C            0.65448580       -3.20939688       -2.49863989
 C           -0.59550686       -2.61057301       -2.92095511
 C            1.19398802        0.28463367       -2.69268961
 C            1.06718358       -1.01182534       -3.17238364
 C           -0.22300141       -1.43903943       -3.69135238
 C            0.57899810        2.59700020       -2.87333185
 C            0.41042900        1.27957281       -3.27950248
 C           -0.35720061        4.39718439       -1.69432179
 C           -1.34583829        4.46478253       -0.63513272
 C           -2.42979495        3.49502582       -0.62304661
 C           -0.58378859        3.47298907       -2.78533348
 C           -3.10601078        1.40702809       -1.68071283
 C           -2.73077159        2.80381654       -1.78610352
 C           -1.85136169        2.92582396       -2.94524818
 C           -2.37203186       -0.51419795       -3.06588552
 C           -1.18772018       -0.47082862       -3.90425071
 C           -0.76926524        0.91621929       -3.93116135
 C           -2.89841404        0.82984608       -2.98821267
 C           -1.96933800        1.69533557       -3.69851671
