   70
C70 / DATE: 7/ 1/2024 / Origin: Program Fullerene / C70 from database
 C            1.09425749       -0.16691862        4.90758959
 C            2.32170608       -0.37850595        4.16278348
 C            2.20474809       -1.65179780        3.47156654
 C            0.23729888       -1.32143832        4.68491721
 C            0.84759505       -2.12947164        3.64668806
 C           -1.11035559       -0.84123554        4.48307353
 C            0.30576647        1.02588790        4.64991350
 C           -1.07685338        0.61330522        4.49163994
 C            0.80608918        2.01758716        3.81445484
 C            2.73961916        0.61533912        3.18969126
 C            2.08036290        1.83328017        3.12542037
 C            2.69469716       -1.47179754        2.11714393
 C            3.06028874       -0.07614839        1.95359369
 C            2.02050173       -2.09272944        1.07270318
 C            0.12318823       -2.46826603        2.50491141
 C            0.83534611       -2.77880989        1.34506509
 C           -1.81829000       -1.25063268        3.28769277
 C           -1.24391974       -2.16147117        2.40346218
 C           -1.82923356        1.08089820        3.33586857
 C           -2.45081449       -0.07562534        2.72621897
 C           -0.09217562        2.67721091        2.88089644
 C           -1.28591908        2.05651545        2.50948421
 C            1.98239924        2.51257487        1.84431643
 C            0.74546422        3.27315454        1.85903909
 C            2.80085746        0.53179079        0.72634893
 C            2.35857818        1.85563589        0.67031319
 C            2.23160355       -1.61304727       -0.21697952
 C            2.62180194       -0.27988115       -0.38918185
 C            1.71036442       -2.32972442       -1.29359764
 C            0.14767016       -3.36350078        0.29084478
 C            0.65117526       -3.20031108       -1.06310492
 C           -1.87263029       -2.32676858        1.16611532
 C           -1.28937524       -3.19362948        0.24745079
 C           -2.68140274       -0.07512386        1.35992879
 C           -2.71397043       -1.30421670        0.71053370
 C           -1.71963003        2.14250395        1.18341958
 C           -2.41525454        1.07287636        0.60699966
 C            0.17149914        3.60242708        0.64679219
 C           -1.17197879        3.12403186        0.36437937
 C            1.91888267        2.37011636       -0.55419634
 C            0.94089213        3.36738439       -0.55553708
 C            2.53145727        0.30878878       -1.64496862
 C            2.15014308        1.65414819       -1.73398337
 C            1.91138005       -1.85512914       -2.58439908
 C            2.47294094       -0.53023241       -2.75447925
 C            0.84388644       -2.00163995       -3.56293653
 C           -0.49036446       -3.18006627       -1.96431984
 C           -1.69633416       -3.15812240       -1.14663903
 C           -0.41240095       -2.42431471       -3.13417634
 C           -3.21723673       -1.33361832       -0.58288666
 C           -2.75736775       -2.34887156       -1.51336825
 C           -2.64009831        1.03468620       -0.77570710
 C           -3.29496410       -0.07645429       -1.30389349
 C           -1.28885772        3.00442395       -1.08009253
 C           -0.01359846        3.41774596       -1.64339449
 C           -1.94733496        1.90706295       -1.62646433
 C            1.61632110        2.16089744       -2.92237392
 C            0.36894867        2.89769234       -2.86347006
 C            2.02222806       -0.02622524       -4.03556761
 C            0.95207065       -0.89579583       -4.50004271
 C            1.55617197        1.33671946       -4.11413570
 C           -1.68287168        1.55260082       -2.95859652
 C           -0.59537262        2.12283603       -3.61833723
 C           -0.21611471       -0.07442705       -4.75770492
 C            0.16784390        1.31187416       -4.55333296
 C           -1.55624173       -1.80132438       -3.63880764
 C           -2.76996735       -1.76794321       -2.84113543
 C           -3.17490714       -0.37507709       -2.71401480
 C           -1.44964717       -0.50197983       -4.28515892
 C           -2.27056222        0.42027685       -3.51427591
