   70
C70 / DATE: 7/ 1/2024 / Origin: Program Fullerene / C70 from database
 C            1.48728361       -0.24593232        5.18710445
 C            0.62009667       -1.41201730        5.14147620
 C            1.19893392       -2.35954228        4.20692627
 C            2.59126017       -0.47715719        4.27479176
 C            2.49182626       -1.84430542        3.79389329
 C            2.61233946        0.60551151        3.29687872
 C            0.73645163        0.88451000        4.67627395
 C            1.49020376        1.47842679        3.58121774
 C           -0.65863215       -0.99384724        4.59775496
 C           -0.61910837        0.44169101        4.39997240
 C            0.20689148       -2.65185581        3.17942734
 C           -0.95653134       -1.82567999        3.44602086
 C            0.63546795       -2.80769008        1.86059049
 C            2.89417141       -2.09468528        2.49525655
 C            2.00320476       -2.84270306        1.62311239
 C            2.91120237        0.29872142        1.97166195
 C            3.37267007       -0.98131706        1.69527069
 C            2.33305584        1.04776194        0.93548358
 C            0.76890749        2.00093854        2.51665209
 C            1.32082374        1.96978823        1.23187900
 C           -1.23065878        0.95437443        3.26504614
 C           -0.61681151        2.03129260        2.63971474
 C           -1.60131601       -1.23803105        2.36861935
 C           -1.98809874        0.09826183        2.46458054
 C           -0.22231095       -2.45163018        0.80982870
 C           -1.41424673       -1.78022138        1.10186049
 C            0.22452353       -2.52923345       -0.52293275
 C            2.47940133       -2.60747292        0.28202258
 C            3.34988361       -1.44273836        0.33257471
 C            1.59435992       -2.68508405       -0.78338473
 C            2.59279476        0.70337427       -0.40212605
 C            3.21739067       -0.52316305       -0.69097852
 C            1.97742924        1.43205507       -1.43462172
 C            0.61070132        2.58239533        0.19600184
 C            0.95874112        2.33939467       -1.13366077
 C           -1.34086566        2.68465824        1.66222427
 C           -0.63255376        3.14538310        0.48779832
 C           -2.67127150        0.65976644        1.38765506
 C           -2.54092201        2.03233617        1.17871234
 C           -2.19386596       -1.28772725        0.06489929
 C           -2.97581830       -0.15155052        0.29630490
 C           -0.64651171       -2.15794521       -1.56271169
 C           -1.92898638       -1.69991618       -1.23801479
 C           -0.16535683       -2.02874767       -2.87766737
 C            2.09789110       -2.22284104       -1.99113256
 C            3.01116948       -1.09226795       -1.93642001
 C            1.20311204       -2.00582929       -3.09871361
 C            2.20564961        1.07816525       -2.76808322
 C            2.73002457       -0.23336906       -3.05527694
 C            1.76010650       -0.92013880       -3.88842544
 C            1.19020989        1.34574854       -3.77380203
 C            0.85219715        0.07989499       -4.41517165
 C            0.16096287        2.85815749       -2.15878667
 C            0.18808978        2.25490115       -3.47888212
 C           -1.62636999        3.30044479       -0.56122559
 C           -2.82475506        2.58871141       -0.13404242
 C           -1.21513365        3.22740586       -1.88123126
 C           -3.70631728        0.40154399       -0.74976411
 C           -3.52618571        1.81223655       -1.04602378
 C           -2.84385615       -1.39088211       -2.24039716
 C           -3.78036136       -0.30972428       -2.01007163
 C           -0.96940137       -1.45316712       -3.85803301
 C           -0.48283853       -0.27371448       -4.56150160
 C           -2.37765606       -1.26307061       -3.60165204
 C           -1.18754635        1.97391122       -3.86945144
 C           -2.06162694        2.57347200       -2.86892369
 C           -3.22419666        1.92262638       -2.46230663
 C           -3.60529372        0.66360754       -3.07758977
 C           -1.50738646        0.74632635       -4.44402860
 C           -2.73663710        0.06740395       -4.07245257
