   70
C70 / DATE: 7/ 1/2024 / Origin: Program Fullerene / C70 from database
 C            1.23811590        0.22750722        4.74317213
 C            2.48131132        0.00944111        4.03629668
 C            2.50057050       -1.37919781        3.61365917
 C            0.40856276       -0.95603024        4.55424644
 C            1.14553513       -1.88976379        3.73200856
 C           -0.89055673       -0.51673606        4.10096757
 C            0.44138458        1.38408138        4.39333109
 C           -0.92334097        0.92885490        4.19926444
 C            0.80143163        2.17011773        3.22473200
 C            2.78671866        0.81893613        2.86836533
 C            1.91416839        1.82925474        2.44979218
 C            3.14564152       -1.43640853        2.31426238
 C            3.35986650       -0.06808735        1.87010416
 C            2.67866408       -2.36226792        1.39752443
 C            0.54215410       -2.44086712        2.60308271
 C            1.37362314       -2.96708774        1.62200141
 C           -1.45429023       -1.09589166        2.97263084
 C           -0.77816209       -2.10415292        2.26988706
 C           -2.44642194       -0.38057977        2.31581805
 C           -1.48303698        1.67241091        3.08250056
 C           -0.43711600        2.52676953        2.55253656
 C           -2.29199918        1.00178952        2.17617458
 C           -0.39481744        2.76168930        1.18420002
 C            1.94168416        2.22573113        1.10913619
 C            0.84999534        2.93433873        0.59554964
 C            3.18578348        0.26068094        0.53074337
 C            2.80420543        1.56178983        0.23051886
 C            2.76722655       -2.05193722       -0.01649688
 C            2.97335442       -0.74096454       -0.42420578
 C            0.82487945       -3.30892252        0.32816294
 C            1.75323463       -2.83421135       -0.68868042
 C           -1.34984369       -2.59812593        1.08445234
 C           -0.53887349       -3.18004923        0.10037403
 C           -3.23483177       -1.06395624        1.40639116
 C           -2.66601006       -2.24093076        0.77506190
 C           -3.93311208       -0.30198651        0.39034018
 C           -2.48376660        1.57741213        0.92193116
 C           -1.47477265        2.37919067        0.37923785
 C           -3.45211134        1.03333587        0.09160315
 C           -1.39949511        2.58400421       -1.00679988
 C            0.89386501        3.40678103       -0.70667102
 C           -0.29526922        3.25998329       -1.52918344
 C            2.87727240        1.96983642       -1.09263159
 C            2.04273909        3.07195836       -1.52084701
 C            2.60297993       -0.37500990       -1.72078589
 C            2.81936562        0.94401524       -2.11773255
 C            1.23829386       -2.37961382       -1.89597155
 C            1.73409991       -1.19618340       -2.45617910
 C           -0.96428991       -3.21524119       -1.22608929
 C           -0.02294557       -2.83757923       -2.26824683
 C           -3.12980084       -2.26923966       -0.60360878
 C           -3.91590865       -1.07474959       -0.83740881
 C           -2.26903541       -2.70066378       -1.59658063
 C           -3.29623905        1.13543384       -1.34456628
 C           -2.27399045        1.91507777       -1.87201046
 C           -3.53209542       -0.18317610       -1.91493013
 C           -1.88953898        1.66192427       -3.18814910
 C            0.13881331        2.99881818       -2.89230904
 C            1.57672422        2.78810745       -2.86495227
 C            2.11024319        1.49396949       -3.25999944
 C           -0.63642393        2.18482319       -3.70250015
 C            1.19902198       -0.74246456       -3.66287008
 C            1.32467238        0.65664758       -4.03563618
 C            0.01157210        1.12047362       -4.45390212
 C           -0.76285968       -2.16061090       -3.31737920
 C           -2.10958494       -1.91203089       -2.81469136
 C           -2.67948967       -0.63665752       -2.91700366
 C           -2.07351528        0.32177598       -3.72444922
 C           -0.12332051       -1.19102846       -4.07204819
 C           -0.88090878       -0.02455749       -4.47454481
