   70
C70 / DATE: 7/ 1/2024 / Origin: Program Fullerene / C70 from database
 C            1.15971898       -0.03411616        4.60706315
 C            2.33757905       -0.30201673        3.81486667
 C            2.21282672       -1.65818607        3.30733672
 C            0.34381594       -1.23950786        4.58423139
 C            0.83576036       -2.05395959        3.49363750
 C           -1.03581863       -0.82085936        4.56112498
 C            0.29624097        1.05916746        4.21338635
 C           -1.04642631        0.63559351        4.54079187
 C            0.50558528        1.70374769        2.99495471
 C            2.61613274        0.54578006        2.67268716
 C            1.71051764        1.53200992        2.29228757
 C            2.73321436       -1.65744774        1.96049922
 C            3.16344754       -0.31204698        1.64141678
 C            2.03898503       -2.33435265        0.97681797
 C            0.04744251       -2.25835958        2.35746981
 C            0.67430738       -2.60471631        1.15701319
 C           -1.87185271       -1.25426380        3.46095840
 C           -1.29562599       -1.85129059        2.33602505
 C           -2.12317880        1.03560389        3.65834316
 C           -2.82132501       -0.18058437        3.26690887
 C           -0.56482471        2.37126318        2.38710582
 C           -1.88613647        2.00678360        2.68749783
 C           -0.30656883        3.20372682        1.30192555
 C            1.83693084        2.06822230        1.01136607
 C            0.97095191        3.08522297        0.62464825
 C            3.05601969        0.09689658        0.31483425
 C            2.59231319        1.38544052        0.04785828
 C            2.49145662       -2.15996520       -0.31851805
 C            2.94292503       -0.88233551       -0.68196182
 C            1.93133142       -2.98458269       -1.27417825
 C           -0.11343702       -2.84587850        0.02911339
 C            0.51819214       -3.27493697       -1.13640716
 C           -1.98481437       -1.79769942        1.11665503
 C           -1.35729144       -2.22179534       -0.05914933
 C           -3.55661447       -0.16172531        2.09540431
 C           -3.17710585       -1.07514451        1.02714662
 C           -2.88794039        2.21244956        1.74110699
 C           -3.81997161        1.12898046        1.48464472
 C           -1.32607925        3.40039041        0.28415534
 C           -2.57340306        2.83210727        0.46552472
 C            0.74879233        3.35161423       -0.78557140
 C           -0.68154117        3.28714978       -1.01266150
 C            2.60109004        1.83116071       -1.26924434
 C            1.59175787        2.77633224       -1.71882225
 C            2.93474263       -0.48703577       -2.02664156
 C            2.80738509        0.86611444       -2.33811325
 C            2.21464970       -2.73542325       -2.66677988
 C            2.72807910       -1.43313241       -3.03012625
 C           -0.09592947       -2.99582960       -2.41974240
 C            0.97976732       -2.94347372       -3.40015836
 C           -1.81823187       -1.74861583       -1.29746850
 C           -1.14309074       -2.08044879       -2.47401664
 C           -3.51901836       -0.44093814       -0.23189060
 C           -3.88952430        0.93438661        0.04995482
 C           -3.12422432        1.99313909       -0.58641351
 C           -2.71173946       -0.68059410       -1.33166146
 C           -1.17948518        2.39640901       -1.96328753
 C           -2.33350258        1.65722009       -1.68183426
 C           -2.45548243        0.37172559       -2.20452537
 C            1.02050014        2.24694918       -2.94525224
 C            1.97090178        1.27310486       -3.45834590
 C           -0.35092064        1.98836248       -3.01344144
 C            2.04850330       -1.03768012       -4.25292081
 C            0.93391680       -1.95308209       -4.45575143
 C            1.54351234        0.31915350       -4.37048466
 C           -1.30759773       -1.25855274       -3.59344176
 C           -1.82684017        0.08250629       -3.40213370
 C           -0.81593600        1.00469366       -3.88289992
 C           -0.26622897       -1.16039337       -4.60207923
 C            0.12841456        0.23756322       -4.68083773
