   70
C70 / DATE: 7/ 1/2024 / Origin: Program Fullerene / C70 from database
 C            1.53181869       -0.36135935        5.01454555
 C            0.67658550       -1.52762068        4.95824284
 C            1.18245763       -2.39033689        3.90520869
 C            2.54935731       -0.51035031        3.98642089
 C            2.25145340       -1.69550357        3.21651337
 C            2.61631292        0.73953506        3.27711066
 C            0.72509173        0.79274278        4.65501962
 C            1.48934872        1.55854685        3.70454799
 C           -0.64568136       -1.08554085        4.54735703
 C           -0.57727354        0.32739961        4.23628089
 C            0.04456194       -2.80564544        3.12008343
 C           -1.08645621       -1.98184576        3.50273164
 C            0.21840442       -3.00654129        1.76103498
 C            2.18385061       -1.59593706        1.82518279
 C            1.35581712       -2.47898065        1.13205948
 C            2.90199675        0.72786229        1.91795833
 C            2.64218327       -0.43990919        1.17464916
 C            2.74674914        1.95156466        1.28950068
 C            0.81648020        2.25977036        2.71227088
 C            1.63094275        2.77523112        1.71876906
 C           -1.07246333        0.75814717        3.00575104
 C           -0.48334263        1.85515752        2.35801296
 C           -1.85691434       -1.47262427        2.46520381
 C           -1.92584720       -0.08256211        2.28543570
 C           -0.93914785       -3.11976091        1.00282448
 C           -2.00938558       -2.28603088        1.34459768
 C           -0.78398377       -3.56294433       -0.30052770
 C            1.41206190       -2.51279390       -0.26048688
 C            0.51648851       -3.36391560       -0.90549032
 C            2.54164372       -0.36133429       -0.22777907
 C            1.94804057       -1.41380707       -0.94992710
 C            2.81595218        2.02105946       -0.14600913
 C            2.84801614        0.84502440       -0.87358532
 C            1.03075561        3.34974295        0.54261846
 C            1.91866716        3.08067300       -0.57457499
 C           -1.04318999        2.30577306        1.15068255
 C           -0.33138036        3.21641013        0.35123429
 C           -2.55898091        0.41606142        1.14750627
 C           -2.18291344        1.66262498        0.64301824
 C           -2.91540396       -1.87689369        0.37636999
 C           -3.26374825       -0.47096258        0.33231526
 C           -1.78908927       -3.25647269       -1.30061403
 C           -2.78947011       -2.35043150       -0.99121512
 C            0.32184173       -3.26240796       -2.33069599
 C           -1.10971040       -3.14820541       -2.57762514
 C            1.83986502       -1.33705576       -2.35100282
 C            0.97084669       -2.18502573       -3.03547496
 C            2.67397039        0.96108940       -2.24349662
 C            2.25559082       -0.18780931       -3.01103520
 C            1.38501271        3.01826180       -1.85826552
 C            1.97032992        2.12967373       -2.75989398
 C           -0.81555995        3.57716016       -0.89866569
 C            0.06478823        3.44205982       -2.05285504
 C           -2.79061871        2.12870531       -0.52228597
 C           -2.14192813        3.16712251       -1.29103174
 C           -3.53362293       -0.12993415       -1.05375922
 C           -3.03543768       -1.21992437       -1.87568216
 C           -3.33094788        1.17132501       -1.47150826
 C           -1.31610592       -1.96221991       -3.39044903
 C           -0.01947220       -1.61008084       -3.93288600
 C           -2.15953710       -0.95272479       -2.93004312
 C            1.46482899        0.29970279       -4.13195121
 C            1.24284789        1.72272853       -3.94498017
 C            0.18047396       -0.32163761       -4.39518572
 C           -0.72980976        2.92161388       -3.15958424
 C           -2.08472798        2.72901032       -2.67771113
 C           -2.66680417        1.40138842       -2.74172384
 C           -1.94534768        0.36774851       -3.33931729
 C           -0.18338705        1.96774716       -4.00559618
 C           -0.84774457        0.67846651       -4.14814278
