   70
C70 / DATE: 7/ 1/2024 / Origin: Program Fullerene / C70 from database
 C            1.28288781       -0.06000086        4.33627431
 C            2.58548011       -0.32262286        3.77768468
 C            2.56016323       -1.66681778        3.21881751
 C            0.45670121       -1.23624977        4.10176478
 C            1.18050340       -2.09173248        3.18326845
 C           -0.86116057       -0.76192834        3.71371514
 C            0.53621856        1.07801993        3.84528055
 C           -0.85425785        0.67852231        3.89641798
 C            0.98715992        1.79119915        2.73115316
 C            3.08428545        0.55428899        2.73844793
 C            2.24485189        1.51148204        2.16309775
 C            3.29438879       -1.62311207        1.97459422
 C            3.87338087       -0.29189078        1.86922126
 C            2.74723548       -2.20478307        0.83328766
 C            0.59532614       -2.38690674        1.95806944
 C            1.38544138       -2.54212515        0.80845311
 C           -1.46362834       -1.28709066        2.57098383
 C           -0.78585855       -2.25894372        1.83182872
 C           -2.51176793       -0.57643865        1.97698789
 C           -1.77251865        1.42689649        3.18648970
 C           -2.77028463        0.72629018        2.40189396
 C            0.07051128        2.59734778        2.04772780
 C           -1.28707805        2.51585819        2.35447694
 C            0.45182168        3.24129306        0.88056930
 C            2.58245697        2.02755973        0.90488841
 C            1.71584483        2.90259115        0.26266896
 C            4.20117925        0.17973579        0.61011717
 C            3.54794411        1.38702358        0.12579809
 C            3.40668305       -1.97320343       -0.36554191
 C            4.21595226       -0.77149393       -0.48589270
 C            2.69884983       -2.14379557       -1.61489993
 C            0.77124789       -2.91190257       -0.39884177
 C            1.42971366       -2.71081285       -1.61972394
 C           -1.40625630       -2.82809502        0.73467540
 C           -0.58702849       -3.23504688       -0.39202281
 C           -3.08885084       -1.04260040        0.79081688
 C           -2.61775962       -2.21895408        0.21721919
 C           -3.88357869       -0.19353638        0.01952825
 C           -3.29252467        1.69029525        1.45742077
 C           -2.27541868        2.72578387        1.30403538
 C           -3.95951201        1.22447763        0.33927270
 C           -0.52260921        3.44203735       -0.18202157
 C           -1.85989907        3.11568639        0.02898002
 C            1.48742776        2.74043015       -1.16621167
 C            0.10661472        3.06672576       -1.43901295
 C            3.29932417        1.22309170       -1.30029261
 C            3.79782947       -0.07294791       -1.68775726
 C            2.91182989       -0.94523427       -2.41232600
 C            2.09225062        1.67867855       -1.82489914
 C            1.81319135       -0.40801342       -3.06504499
 C            1.31956446        0.85020938       -2.66136385
 C            0.68229106       -2.53781905       -2.78571318
 C            0.93124232       -1.34566956       -3.57920421
 C           -1.38398040       -3.06672883       -1.59481337
 C           -2.60096763       -2.35169607       -1.23123025
 C           -0.74783298       -2.78041960       -2.78913999
 C           -3.86970446       -0.32430954       -1.43049585
 C           -3.07540163       -1.30355992       -2.02126641
 C           -3.82099294        1.96422316       -0.89738551
 C           -2.64994236        2.80295908       -1.07625456
 C           -3.86611488        1.01453064       -1.99394997
 C           -0.61094609        2.30925064       -2.35142917
 C            0.00733508        1.23647393       -3.00462395
 C           -2.00235877        2.39787470       -2.31566173
 C           -2.82050970        1.36720844       -2.93481388
 C           -0.31738395       -0.90763138       -4.14490693
 C           -1.35342993       -1.83038245       -3.70359067
 C           -2.47900502       -1.03262998       -3.25407351
 C           -0.76299136        0.43256551       -3.84514567
 C           -2.19357567        0.34651547       -3.62637540
