   70
C70 / DATE: 7/ 1/2024 / Origin: Program Fullerene / C70 from database
 C            1.54405050        0.03023172        4.51975423
 C            0.73711952       -1.15414339        4.31973996
 C            1.27919914       -1.89831045        3.19227345
 C            2.62908875       -0.01873217        3.56152658
 C            2.44468432       -1.18370263        2.71596636
 C            2.68392070        1.27361000        2.91188434
 C            0.71633735        1.17734813        4.18061341
 C            1.43001736        1.94785591        3.19071365
 C           -0.63988022       -0.71638518        4.23375047
 C           -0.60158417        0.68516329        3.84409558
 C           -1.51066083       -1.53958855        3.55218592
 C            0.37824834       -2.43384704        2.27699749
 C           -0.93819774       -2.57252767        2.70185688
 C            0.64107652       -2.34359809        0.90126032
 C            2.62865562       -1.01588498        1.35255792
 C            1.79359395       -1.68054602        0.44672495
 C            3.13103803        1.32003998        1.60085682
 C            3.32794390        0.11103901        0.92667768
 C            2.77516830        2.43505415        0.84807510
 C            0.73940587        2.47274523        2.10617825
 C            1.50981677        2.99889796        1.07310640
 C           -1.18968160        1.06993643        2.63449123
 C           -0.55632557        2.01200102        1.80937759
 C           -2.53180742       -0.91678852        2.74278575
 C           -2.24324198        0.29972119        2.12682127
 C           -1.95560386       -2.91433397        1.73739312
 C           -3.06608910       -1.99274724        1.94250365
 C           -0.32408132       -2.78320056       -0.02300576
 C           -1.58362227       -3.21421006        0.43522280
 C           -0.09033684       -2.60864997       -1.39555255
 C            1.99168592       -1.48649674       -0.92590068
 C            0.95852792       -1.78571308       -1.81699364
 C            3.74912840        0.15201319       -0.39237976
 C            3.03423946       -0.66104045       -1.36011179
 C            3.43717979        2.62124281       -0.36095561
 C            4.00747763        1.44999104       -0.99734314
 C            2.84590024        3.44042256       -1.39912949
 C            0.84385923        3.67457109        0.06046743
 C            1.52349515        3.98389319       -1.18071769
 C           -1.11789513        2.30742947        0.56137401
 C           -0.50907267        3.26020910       -0.25354381
 C           -2.71821395        0.53094404        0.83040966
 C           -2.03779090        1.42075553       -0.00066587
 C           -3.83702173       -1.66429182        0.84508807
 C           -3.67006234       -0.33146540        0.27985906
 C           -2.62922532       -3.38918169       -0.46515296
 C           -3.83263461       -2.60145434       -0.26010058
 C           -1.03931465       -3.02310783       -2.32973759
 C           -2.35915185       -3.40302304       -1.88122265
 C           -1.23365735       -2.21836327       -3.51419238
 C            0.83531107       -1.03937619       -3.00105643
 C           -0.35279238       -1.09150465       -3.70976028
 C            2.82027208        0.15696513       -2.53848150
 C            3.52236969        1.41126116       -2.36400773
 C            2.80759711        2.64380123       -2.61612134
 C            1.55856758        0.14019923       -3.11034777
 C            0.67223993        3.53247315       -2.26681882
 C           -0.59715333        3.10879840       -1.69546465
 C            1.42500030        2.56689125       -3.04351770
 C            0.83362105        1.33003513       -3.27963949
 C           -2.11756317        1.28778313       -1.39484627
 C           -1.15961186        0.11213569       -3.70742976
 C           -1.20449977        1.96598258       -2.20087882
 C           -0.55736938        1.26171092       -3.21747742
 C           -3.76330281       -0.45243048       -1.16545795
 C           -4.06194045       -1.84423865       -1.47020741
 C           -3.31996644       -2.50973518       -2.52050726
 C           -2.58487152       -1.68987966       -3.45482797
 C           -2.86275008        0.25260663       -1.95914061
 C           -2.45886285       -0.26726070       -3.18989426
