   70
C70 / DATE: 7/ 1/2024 / Origin: Program Fullerene / C70 from database
 C            1.20627224       -0.04003032        4.26958891
 C            2.51889666       -0.34333245        3.75482958
 C            2.48180573       -1.70341261        3.23357133
 C            0.39184856       -1.23424479        4.11150402
 C            1.09916638       -2.11932288        3.21353073
 C           -0.93470954       -0.80119749        3.72736719
 C            0.46783413        1.05831444        3.68179256
 C           -0.92090933        0.65287152        3.65166432
 C            0.97788782        1.74071128        2.58179049
 C            3.06491474        0.49377040        2.70616851
 C            2.27130837        1.46804727        2.09741919
 C            3.21524205       -1.70235654        1.98922006
 C            3.83945355       -0.39390531        1.86590025
 C            2.64831274       -2.28104249        0.85668457
 C            0.49977069       -2.43583561        1.99871130
 C            1.27698188       -2.58031339        0.83696814
 C           -1.61282593       -1.49768871        2.73316917
 C           -0.89165398       -2.36302312        1.89817653
 C           -2.78043303       -0.91024109        2.25830434
 C           -1.77952961        1.26683492        2.74590431
 C           -2.88872825        0.53705813        2.32301063
 C            0.09347348        2.49751379        1.81440170
 C           -1.28997976        2.29147611        1.92806071
 C            0.60063745        3.26857318        0.77804361
 C            2.67592856        1.97497440        0.85507078
 C            1.87048484        2.89510956        0.19418362
 C            4.19953012        0.04193406        0.60212996
 C            3.61404299        1.27463586        0.09439199
 C            3.31549390       -2.08956693       -0.34548685
 C            4.17541035       -0.92484556       -0.48014483
 C            2.60018601       -2.24388948       -1.59255843
 C            0.65675458       -2.95389044       -0.36605688
 C            1.31143180       -2.76301980       -1.59007829
 C           -1.51032765       -2.93215192        0.79313603
 C           -0.69840303       -3.28505342       -0.35771780
 C           -3.36363788       -1.34808027        1.00287850
 C           -2.76393697       -2.37990757        0.30422990
 C           -3.64994033        0.97932230        1.17009007
 C           -3.81102497       -0.16670494        0.28368202
 C           -2.16289175        2.91453607        1.03268109
 C           -3.37881276        2.22532519        0.62775498
 C           -0.26667280        3.67849396       -0.30826578
 C           -1.63786506        3.61229138       -0.13065470
 C            1.66216979        2.73705525       -1.23887900
 C            0.31502442        3.16493077       -1.54105175
 C            3.36810793        1.10262359       -1.33072721
 C            3.79219167       -0.22643671       -1.69414369
 C            2.85776449       -1.06161807       -2.40137200
 C            2.19429825        1.62123820       -1.87115900
 C            1.77928393       -0.47902881       -3.05005250
 C            1.36238962        0.81501170       -2.67244556
 C            0.56043651       -2.55969132       -2.74840904
 C            0.84470528       -1.37654944       -3.54397616
 C           -1.50621841       -3.06028124       -1.54479414
 C           -2.67804419       -2.29778415       -1.14140352
 C           -0.87717288       -2.75486941       -2.73918905
 C           -3.54278322       -0.03449606       -1.07969947
 C           -2.99260490       -1.10413718       -1.79469144
 C           -3.54181023        2.40792002       -0.80127195
 C           -2.46548554        3.26445868       -1.27050834
 C           -3.57497665        1.23460368       -1.65805919
 C           -0.46442326        2.40907525       -2.40671896
 C            0.07496266        1.27335876       -3.02131062
 C           -1.84564745        2.60662871       -2.40828772
 C           -2.72522343        1.52059877       -2.80012115
 C           -0.39444138       -0.88552123       -4.08670803
 C           -1.46427115       -1.74869648       -3.60737211
 C           -2.51126602       -0.88868681       -3.08507858
 C           -0.76824490        0.47904989       -3.79970843
 C           -2.18950789        0.46250697       -3.50790894
