   70
C70 / DATE: 7/ 1/2024 / Origin: Program Fullerene / C70 from database
 C            1.12724326       -0.04529837        4.40910275
 C            2.47076256       -0.35679393        3.98405273
 C            2.46621947       -1.74006644        3.53239449
 C            0.31530163       -1.22963554        4.17245630
 C            1.08053732       -2.10560531        3.31742406
 C           -0.96681890       -0.77475041        3.69380040
 C            0.43998637        1.06665756        3.78245672
 C           -0.94835944        0.68008979        3.68284930
 C            1.01219326        1.72672145        2.70068225
 C            3.05715672        0.42896427        2.91830304
 C            2.27115658        1.33888854        2.21228101
 C            3.38070961       -1.82565299        2.41954293
 C            3.88581007       -0.48368274        2.16484167
 C            2.88653685       -2.33286700        1.15708261
 C            0.61765981       -2.34424023        2.02024718
 C            1.52923934       -2.60183607        0.98596366
 C           -1.55390945       -1.41743944        2.61315298
 C           -0.73923275       -2.13196243        1.71780628
 C           -2.71738241       -0.83297754        2.14110929
 C           -1.75864892        1.32640456        2.75537651
 C           -2.84824992        0.60850501        2.26766396
 C            0.18125539        2.51320537        1.90282196
 C           -1.21123288        2.34263747        1.96260445
 C            0.75279308        3.23886137        0.86350138
 C            2.65774331        1.70864299        0.91812095
 C            2.01264382        2.78014888        0.30790447
 C            3.95064168       -0.31601590        0.72742546
 C            3.56704286       -1.58270892        0.12436582
 C            3.46554248        0.85409101        0.15299583
 C            3.00197566       -1.56128538       -1.14319067
 C            1.05680357       -2.72239355       -0.31745583
 C            1.89436903       -2.37058349       -1.38688205
 C           -1.21545551       -2.44798887        0.43570889
 C           -0.30818316       -2.90133621       -0.52894175
 C           -3.23846363       -1.21626862        0.85242952
 C           -2.52690607       -2.10570718        0.06686715
 C           -3.58311928        1.09716926        1.11601605
 C           -3.81663699       -0.03526977        0.22644342
 C           -2.03288743        2.98749811        1.03469860
 C           -3.25413684        2.33417396        0.58736843
 C           -0.07062403        3.70456929       -0.23662517
 C           -1.44851272        3.66634719       -0.11070981
 C            1.89819641        2.82564629       -1.14131526
 C            0.53787181        3.21705593       -1.46373972
 C            3.34900050        0.86047977       -1.23423618
 C            3.16700049       -0.41170605       -1.91399157
 C            2.50815954        1.84133746       -1.89674134
 C            2.29674781       -0.18232389       -3.05802895
 C            1.72841218        1.14571211       -2.90692371
 C            1.40237153       -2.41736319       -2.68578103
 C            1.47756523       -1.21110082       -3.49228761
 C           -0.75164010       -3.27690791       -1.79299801
 C            0.10890032       -3.02263177       -2.92952974
 C           -2.92284016       -2.20641396       -1.25954195
 C           -2.09276991       -2.92612808       -2.19857508
 C           -3.72283899        0.11238094       -1.16031544
 C           -3.41587130       -1.01067478       -1.92668659
 C           -3.37305768        2.53223131       -0.84213324
 C           -2.23839458        3.32532212       -1.28057760
 C           -3.46526573        1.37006297       -1.70756289
 C           -0.21835244        2.44913706       -2.35142014
 C            0.34415980        1.31650646       -2.94354615
 C           -1.59538772        2.61980861       -2.37723144
 C           -2.43949612        1.49758810       -2.73433136
 C            0.11958138       -0.89378919       -3.88993755
 C           -0.61368836       -2.14350184       -3.83587345
 C           -1.99134727       -2.11695477       -3.40459491
 C           -2.60055254       -0.83542781       -3.11381237
 C           -0.47388737        0.27992030       -3.41678542
 C           -1.86514010        0.34052486       -3.24555853
