   70
C70 / DATE: 7/ 1/2024 / Origin: Program Fullerene / C70 from database
 C            1.55915031        0.08935595        4.57936843
 C            0.75763256       -1.11388630        4.46128802
 C            1.39663754       -1.99128437        3.49694496
 C            2.64539141       -0.00884795        3.62209409
 C            2.54654766       -1.28439741        2.94855386
 C            2.62265694        1.18336115        2.81065803
 C            0.72730485        1.21302284        4.18298940
 C            1.42613708        1.93630880        3.13741986
 C           -0.61162122       -0.71162183        4.21802762
 C           -0.59805461        0.70640628        3.89107612
 C           -1.40744224       -1.55405609        3.46146917
 C            0.59819716       -2.74185597        2.63575682
 C           -0.79059923       -2.67723979        2.76459980
 C            1.15288103       -3.17095279        1.43376336
 C            2.77599670       -1.34287487        1.57612275
 C            2.29440081       -2.45158966        0.88962387
 C            2.95253285        1.08548778        1.47122045
 C            3.07227626       -0.17221265        0.86183952
 C            2.61037108        2.16048033        0.66821876
 C            0.69005282        2.46916194        2.07930374
 C            1.36822596        2.77267782        0.89155996
 C           -1.22757868        1.14565518        2.72942227
 C           -0.68558097        2.22743289        2.02921015
 C           -2.36840384       -0.96777021        2.54713977
 C           -2.19547149        0.34059821        2.11885933
 C           -1.64482015       -2.99408541        1.62919010
 C           -2.69198644       -1.98129421        1.56850129
 C            0.29547794       -3.55611723        0.32344561
 C           -1.09018602       -3.46514595        0.44051444
 C            2.14776233       -2.39734061       -0.55355551
 C            0.93750942       -3.11638426       -0.90775863
 C            3.15137200       -0.22189780       -0.53627666
 C            2.45874212       -1.22490417       -1.22321449
 C            3.19941912        2.21154252       -0.58195465
 C            3.50677742        0.94247163       -1.21506193
 C            2.64434634        3.09420211       -1.57841148
 C            0.66277518        3.36277817       -0.16827684
 C            1.27422912        3.52462063       -1.41030715
 C           -1.42410560        2.78515506        0.99722648
 C           -0.72760222        3.39297758       -0.12292445
 C           -2.75162363        0.73151626        0.90151057
 C           -2.55121438        2.03952673        0.46786271
 C           -3.16788893       -1.59661024        0.32270804
 C           -3.26252817       -0.22943478        0.01641797
 C           -1.85008212       -3.36413142       -0.72318519
 C           -3.03532979       -2.52640832       -0.70363007
 C            0.14258508       -2.65805275       -1.95145049
 C           -1.17652963       -3.09439034       -1.98291891
 C            1.77402483       -0.92770292       -2.40608081
 C            0.51229241       -1.48955359       -2.63201626
 C            3.17336308        1.06208204       -2.61938990
 C            2.76073313        2.43368660       -2.86523070
 C            2.15383155        0.18392812       -3.15370006
 C            0.53764198        3.14510513       -2.60931059
 C            1.43855171        2.39609669       -3.45993427
 C            1.11151576        1.01446806       -3.73272907
 C           -1.47250516        3.08086054       -1.33218837
 C           -2.67714965        2.36686952       -0.94153200
 C           -0.76950544        2.69006875       -2.46891118
 C           -3.69491306        0.17240030       -1.25008789
 C           -3.21182109        1.42474090       -1.80294213
 C           -3.32021827       -2.14760725       -2.07154592
 C           -2.12843416       -2.43831433       -2.85488705
 C           -3.70785427       -0.78117359       -2.34225895
 C           -0.43524273       -0.74643563       -3.34962006
 C           -0.20164654        0.60657327       -3.56436015
 C           -1.16718361        1.53407836       -3.15119133
 C           -2.48746093        1.10503156       -3.02233759
 C           -1.72982827       -1.21665979       -3.51430331
 C           -2.81693100       -0.26849520       -3.37042332
