   70
C70 / DATE: 7/ 1/2024 / Origin: Program Fullerene / C70 from database
 C            1.61377186       -0.00838728        4.50836333
 C            0.80470684       -1.20572830        4.38303741
 C            1.39251387       -2.04455726        3.35167271
 C            2.66200248       -0.07763582        3.50658570
 C            2.57480669       -1.36653751        2.84894949
 C            2.57632084        1.11084725        2.67960057
 C            0.76910012        1.12619054        4.18234446
 C            1.39676305        1.84804749        3.09725580
 C           -0.57678267       -0.79276619        4.23086347
 C           -0.58227454        0.64235878        3.98562351
 C           -1.41290011       -1.59576382        3.47227280
 C            0.55026111       -2.68391029        2.44388833
 C           -0.82876509       -2.66179142        2.67081292
 C            1.03404198       -2.99123421        1.16844064
 C            2.83185858       -1.42107310        1.48720727
 C            2.24797976       -2.44308785        0.74207460
 C            2.82557673        0.98029770        1.31387789
 C            3.24924043       -0.25814966        0.83351709
 C            2.22510081        1.88110554        0.42584360
 C            0.59628665        2.38660531        2.10520614
 C            1.19982670        2.70454832        0.89855063
 C           -1.32368116        1.14436080        2.91715738
 C           -0.78613473        2.16926715        2.12443108
 C           -2.44183509       -0.96961296        2.66200562
 C           -2.41001025        0.40529065        2.44628024
 C           -1.74916285       -2.93275173        1.57799616
 C           -2.71823379       -1.85052897        1.53731750
 C            0.18225466       -3.59185982        0.24213885
 C           -1.25314391       -3.43932059        0.39168824
 C            0.48103967       -3.51236385       -1.17721425
 C            2.67753668       -2.63730324       -0.56756994
 C            1.72831760       -3.07214130       -1.57796687
 C            3.65632270       -0.34774769       -0.48971863
 C            3.52400614       -1.62367659       -1.16921751
 C            2.41771151        1.72130813       -0.95333588
 C            3.24245854        0.69412538       -1.41334121
 C            1.60323842        2.40678162       -1.86009471
 C            0.49230251        3.50554385        0.02026856
 C            0.76897897        3.41766280       -1.39803389
 C           -1.56323960        2.74207454        1.11241342
 C           -0.94675943        3.59256940        0.19331947
 C           -3.17586569        0.91573681        1.40748749
 C           -2.79864290        2.17733964        0.80012495
 C           -3.09126440       -1.28373349        0.31963325
 C           -3.59096550        0.01784786        0.34003887
 C           -1.77450028       -2.93587504       -0.86634339
 C           -0.70111288       -2.99803329       -1.84732704
 C           -2.64444957       -1.84698418       -0.88367665
 C           -0.58749284       -1.97797598       -2.79051753
 C            1.82467006       -2.15479569       -2.69915026
 C            3.03198430       -1.36902475       -2.51132850
 C            2.96103332        0.06778027       -2.69606052
 C            0.67854865       -1.52509669       -3.18420396
 C            1.37358312        1.86972599       -3.12693589
 C            1.93312421        0.57754947       -3.47136807
 C            0.81658389       -0.29017368       -3.82123935
 C            0.03744092        1.92148479       -3.70033060
 C           -0.34343435        0.55774940       -4.03763877
 C           -0.47072817        3.69666157       -2.10457764
 C           -1.53659598        3.78515675       -1.12001262
 C           -0.89876986        2.78956300       -3.15346839
 C           -3.26874399        2.15305795       -0.57945788
 C           -3.68211740        0.79181176       -0.88398490
 C           -2.61253001        2.90999298       -1.54081406
 C           -2.22360089        2.29844202       -2.80349183
 C           -2.78705178       -1.14769076       -2.08106329
 C           -1.72316924       -1.22009647       -3.07159239
 C           -1.60042103        0.08576233       -3.69479573
 C           -3.31098248        0.20665968       -2.08390725
 C           -2.56593188        0.97610190       -3.06851004
