   70
C70 / DATE: 7/ 1/2024 / Origin: Program Fullerene / C70 from database
 C            1.61164575       -0.06924242        4.71732319
 C            0.80438626       -1.23667731        4.42086206
 C            1.41328349       -1.94097176        3.30474074
 C            2.71508518       -0.04639967        3.77609977
 C            2.59448923       -1.19983199        2.90008108
 C            2.74752447        1.26917649        3.17049320
 C            0.79397496        1.10348608        4.45969008
 C            1.47159746        1.90685421        3.45875839
 C           -0.57139077       -0.79976724        4.28677094
 C           -0.55757214        0.65205481        4.18039919
 C           -1.39457197       -1.51560688        3.43132554
 C            0.58634230       -2.46986635        2.32049704
 C           -0.79152724       -2.48627990        2.53014663
 C            1.06480626       -2.57844455        1.01706777
 C            2.85364295       -1.03392365        1.54186721
 C            2.17119127       -1.82199020        0.61423809
 C            3.25348503        1.37213718        1.88645795
 C            3.44648291        0.15311375        1.11127157
 C            2.66055161        2.33824146        0.98440845
 C            0.72063109        2.43076177        2.40844446
 C            1.35318423        2.76711113        1.20647701
 C           -1.26326752        1.25778315        3.14378125
 C           -0.66908729        2.31732469        2.44620544
 C           -2.40573029       -0.80410878        2.66959331
 C           -2.35308251        0.58195724        2.58438473
 C           -1.67892739       -2.62749710        1.38809791
 C           -2.67374639       -1.57158004        1.46293301
 C            0.23673778       -3.13227060        0.04370851
 C           -1.14184607       -2.93835923        0.14993228
 C            0.78246597       -3.38253790       -1.20947851
 C            2.39899741       -1.62027488       -0.74846429
 C            1.86909610       -2.52915974       -1.65507823
 C            3.36900840        0.52200724       -0.29491859
 C            3.05705279        1.94104105       -0.35057942
 C            2.75935088       -0.34950808       -1.19368039
 C            2.33006966        2.41948556       -1.42287076
 C            0.59724490        3.24742165        0.13021534
 C            1.10688203        3.16435100       -1.16699062
 C           -1.41656352        3.02413146        1.51619549
 C           -0.76916942        3.46528819        0.29399626
 C           -3.09988841        1.19792643        1.58810414
 C           -2.73516030        2.53554776        1.17036335
 C           -3.04205080       -0.89906432        0.29732868
 C           -3.44571509        0.43421895        0.39624260
 C           -1.86237756       -2.57316393       -0.98254724
 C           -2.63475242       -1.40605597       -0.94457053
 C           -0.11417454       -3.58272597       -2.33411563
 C           -1.47888030       -3.11351006       -2.20398093
 C            1.54623699       -2.07378163       -2.99470058
 C            0.47027783       -2.91968778       -3.48579259
 C            2.20816333        0.15455831       -2.37798819
 C            2.06868665        1.53269957       -2.54082901
 C            1.54126836       -0.70418628       -3.25560003
 C            0.19634819        2.89566836       -2.27030327
 C            0.89840301        2.04985448       -3.22286108
 C           -1.67043854        3.18752096       -0.81655395
 C           -2.88170812        2.61210352       -0.27213960
 C           -3.29527058        1.31088479       -0.75219831
 C           -1.14651716        2.65922514       -1.99114945
 C           -2.69259893       -0.57704428       -2.06997781
 C           -2.69991358        0.80250147       -1.89518482
 C           -1.80023610        1.59351557       -2.62072464
 C           -1.81856909       -2.41401059       -3.42661687
 C           -0.61299882       -2.32184999       -4.23835989
 C           -2.38938891       -1.08661653       -3.32569173
 C            0.65765195       -0.16817208       -4.19877624
 C            0.16797342        1.18687570       -4.02050675
 C           -1.26532243        1.08700754       -3.80356158
 C           -0.47629746       -0.94599553       -4.66664883
 C           -1.67547843       -0.23367342       -4.25506230
