   70
C70 / DATE: 7/ 1/2024 / Origin: Program Fullerene / C70 from database
 C            1.17065920       -0.11715004        4.63037621
 C            2.49877290       -0.32630965        4.08719633
 C            2.52339279       -1.65072214        3.49363607
 C            0.36596497       -1.28277020        4.29408603
 C            1.15734879       -2.14484610        3.44928209
 C           -0.89882109       -0.81453323        3.78933320
 C            0.42441998        1.06566109        4.23601478
 C           -0.91086164        0.63807638        3.86304070
 C            1.04622978        2.05363324        3.48887623
 C            3.01254835        0.60789863        3.10160495
 C            2.36076605        1.81637704        2.89975539
 C            3.25992189       -1.56649442        2.24783443
 C            3.45310066       -0.15599308        1.94473820
 C            2.87842259       -2.40873716        1.22046521
 C            0.64462845       -2.57463797        2.22464170
 C            1.55923039       -3.02601569        1.28040479
 C           -1.45378408       -1.41543813        2.66816740
 C           -0.63729366       -2.17046738        1.80703893
 C           -2.58024334       -0.79352100        2.15611933
 C           -1.63384898        1.33772488        2.89572253
 C           -2.68068030        0.65171640        2.28070659
 C            0.26022987        2.80689537        2.52897920
 C           -1.05578872        2.44275070        2.25248292
 C            2.35642971        2.39741685        1.57054383
 C            1.13714013        3.17518310        1.42914250
 C            3.18032933        0.31958968        0.65769239
 C            2.81252529        1.65859760        0.48343060
 C            3.05211526       -1.95486473       -0.14129925
 C            3.07438168       -0.58713782       -0.40765450
 C            1.13255121       -3.25541785       -0.08258571
 C            2.21253822       -2.81253992       -0.94843211
 C           -1.06924762       -2.44328621        0.49181320
 C           -0.17601588       -2.97545929       -0.45095812
 C           -3.07439577       -1.16596455        0.85463792
 C           -2.36235322       -2.07629549        0.08859617
 C           -3.28932745        1.16401425        1.06736273
 C           -3.59701178        0.03107884        0.21354778
 C           -1.64248144        2.96895145        1.10295902
 C           -2.79506769        2.32072596        0.50200944
 C            0.59588574        3.35728530        0.15930231
 C           -0.78697149        3.45110174        0.02737702
 C            2.50440495        2.12727962       -0.78607386
 C            1.36936885        3.02521912       -0.95036025
 C            2.71644431       -0.14090491       -1.68436751
 C            2.51880977        1.21367263       -1.90939880
 C            1.89750791       -2.40134154       -2.22898147
 C            2.25490698       -1.05089746       -2.63515659
 C           -0.47073792       -2.89999927       -1.81255682
 C            0.55675975       -2.64890409       -2.72197551
 C           -2.73080474       -2.19086193       -1.24918662
 C           -1.78399770       -2.71157507       -2.21102891
 C           -3.49300971        0.13510276       -1.17107329
 C           -3.41224828       -1.06677455       -1.87380077
 C           -2.65726924        2.40085580       -0.94008594
 C           -1.42543272        3.11694283       -1.23678268
 C           -3.02371346        1.32831409       -1.75029820
 C            0.73221480        2.71354527       -2.22070150
 C            1.49383150        1.64386907       -2.84875493
 C           -0.65601618        2.72177284       -2.32855055
 C            1.27834938       -0.61962345       -3.62842033
 C            0.33668928       -1.71723469       -3.81360050
 C            0.82843037        0.70133390       -3.62573103
 C           -2.05653802       -2.07586262       -3.49260200
 C           -3.08948920       -1.07428750       -3.28461189
 C           -0.96305723       -1.45015754       -4.21613415
 C           -2.54502023        1.33887521       -3.05971693
 C           -1.25770043        1.95972136       -3.32751721
 C           -0.45827415        0.99609972       -4.06796299
 C           -2.64766350        0.15742242       -3.89245040
 C           -1.34208420       -0.07767847       -4.49010681
