   70
C70 / DATE: 7/ 1/2024 / Origin: Program Fullerene / C70 from database
 C            1.36157391        0.01655654        4.67480009
 C            2.52807877       -0.07395838        3.82109221
 C            2.52318020       -1.39170143        3.21156376
 C            0.52279952       -1.14187030        4.40464405
 C            1.22480505       -1.98794123        3.45990224
 C           -0.79918246       -0.66376631        4.05009179
 C            0.52694626        1.19439677        4.57787361
 C           -0.84117661        0.75418489        4.34716710
 C            0.82323091        2.19224326        3.56487718
 C            2.70566861        0.89691217        2.75364294
 C            1.80401880        1.95007970        2.59648535
 C            2.95202837       -1.24612855        1.82926203
 C            3.14341526        0.17006987        1.57554053
 C            2.31868871       -2.00841785        0.85281516
 C            0.53531081       -2.49857799        2.36847088
 C            1.27130330       -2.84279012        1.24186170
 C           -1.37704345       -1.11287605        2.86862902
 C           -0.82438017       -2.21420287        2.20954054
 C           -2.24807813       -0.27250701        2.17763644
 C           -1.42421747        1.65175501        3.36358839
 C           -0.46252591        2.71809022        3.14633665
 C           -2.08953996        1.11229739        2.26344413
 C           -0.52515557        3.42189007        1.95887743
 C            1.67793339        2.54897362        1.33984588
 C            0.67334160        3.49759132        1.14678743
 C            2.80531134        0.66856750        0.32614648
 C            2.29747296        1.96171345        0.23027557
 C            2.36963618       -1.57210469       -0.47199319
 C            2.62013513       -0.21891839       -0.73616582
 C            1.85147670       -2.39899883       -1.47138904
 C            0.64238291       -3.61307802        0.27974211
 C            1.06465596       -3.48742038       -1.10187852
 C           -1.49440424       -2.75749125        1.10875693
 C           -0.80905863       -3.65406335        0.28940582
 C           -2.98615111       -0.80245981        1.13227186
 C           -2.63670157       -2.11771732        0.62317422
 C           -3.31115128        0.04448271       -0.00064130
 C           -2.26104019        1.90153319        1.12017700
 C           -1.61134052        3.13355548        1.04166616
 C           -2.85345225        1.35751154       -0.02481782
 C            0.24404760        3.83431260       -0.19968507
 C           -1.19952473        3.64268597       -0.25290023
 C            2.12482355        2.51456083       -1.03397375
 C            1.02978774        3.43970368       -1.27107768
 C            2.46428404        0.28889178       -2.02730899
 C            2.24107509        1.65493326       -2.20031697
 C            1.80993666       -1.94785800       -2.78887963
 C            2.19005600       -0.57850715       -3.07947341
 C            0.66714705       -2.28562419       -3.63315386
 C           -0.07037697       -3.85192170       -1.92862078
 C           -1.24937885       -3.86404369       -1.07889959
 C           -0.36204998       -3.03947247       -3.09071493
 C           -2.94059693       -2.13021373       -0.80251350
 C           -3.21393915       -0.76423239       -1.20686826
 C           -2.22228677       -2.95495374       -1.65066006
 C           -1.65345551       -2.39929908       -2.86786221
 C           -2.59960751       -0.22935852       -2.33735405
 C           -1.80857684       -1.04120810       -3.16134591
 C           -2.68174657        1.97800018       -1.26261947
 C           -1.78232299        3.11217118       -1.39304076
 C           -2.54126765        1.15767970       -2.45694590
 C            0.40052767        3.07208287       -2.52901318
 C            1.26710667        2.10777227       -3.18388447
 C           -0.97922003        2.90826594       -2.58809714
 C           -1.54230328        1.77803893       -3.31043489
 C            1.35830491       -0.11489443       -4.17682551
 C            0.31394664       -1.10010535       -4.38615729
 C           -0.95684276       -0.45989717       -4.10247814
 C            0.72283866        1.18472655       -4.06629297
 C           -0.71918093        0.97234942       -4.08210837
