   70
C70 / DATE: 7/ 1/2024 / Origin: Program Fullerene / C70 from database
 C            1.52653535        0.11497099        4.76296899
 C            0.73721422       -1.09785976        4.68277169
 C            1.37112864       -1.98797903        3.72425296
 C            2.64903249       -0.02683772        3.85131165
 C            2.62574790       -1.37403564        3.31632266
 C            2.61598483        1.08648595        2.91781764
 C            0.69636885        1.20084281        4.27506958
 C            1.41304758        1.84881233        3.20128569
 C           -0.64082379       -0.70968043        4.44252032
 C           -0.62326772        0.67218868        3.98797672
 C           -1.44324089       -1.60433802        3.76094958
 C            0.55872177       -2.62110523        2.78164634
 C           -0.79937678       -2.71423201        3.07268727
 C            0.99297621       -2.73147562        1.45145606
 C            3.06917593       -1.56210548        2.02014063
 C            2.31408214       -2.43838153        1.14507482
 C            2.96217340        0.85989848        1.58052754
 C            3.44100608       -0.39776893        1.22816195
 C            2.40812019        1.68351554        0.58730715
 C            0.69972501        2.31748475        2.11833271
 C            1.42012529        2.59276711        0.97186879
 C           -1.22768931        1.00663984        2.77160091
 C           -0.65785401        2.00366113        1.98062410
 C           -2.42093515       -1.07900839        2.83170629
 C           -2.17903626        0.14960449        2.21147691
 C           -1.71527002       -3.15974601        2.04709505
 C           -2.81572264       -2.20718149        2.02322951
 C            0.07318077       -2.89695497        0.40586090
 C           -1.22568247       -3.28551561        0.69007036
 C            0.38754885       -2.46903188       -0.89192062
 C            2.65675408       -2.06935878       -0.21144820
 C            3.38418049       -0.80966616       -0.15384222
 C            1.72676076       -2.23741415       -1.23156380
 C            2.56548967        1.36186701       -0.77498151
 C            3.12461944        0.12568160       -1.14170971
 C            1.98600640        2.19283932       -1.75253730
 C            0.78993208        3.36884541        0.02331345
 C            1.20657502        3.27369293       -1.35497637
 C           -1.30226949        2.40117410        0.81030340
 C           -0.65949976        3.37225621        0.04360277
 C           -2.63685284        0.37435676        0.89947572
 C           -2.21657786        1.52482960        0.20449572
 C           -3.13319218       -1.96133803        0.64417921
 C           -2.28795262       -2.81953687       -0.16905318
 C           -3.31073084       -0.65404606        0.21613734
 C           -0.64250290       -2.20942585       -1.82160221
 C           -1.98842169       -2.36847311       -1.44691103
 C           -0.33777926       -1.62590891       -3.06417975
 C            2.02625257       -1.61516266       -2.43618465
 C            2.83281261       -0.40532621       -2.38992337
 C            0.98690591       -1.41069865       -3.41797573
 C            1.91754698        1.78205770       -3.08485160
 C            2.39498778        0.46951829       -3.44681140
 C            1.33165902       -0.21099290       -4.16678072
 C            0.70579367        2.02796064       -3.85590853
 C            0.29189919        0.76302694       -4.44735858
 C            0.06267320        3.66582973       -2.16162738
 C           -1.10998338        3.64891651       -1.29754141
 C           -0.25073096        2.90249184       -3.35483113
 C           -2.64848512        1.74892928       -1.11608160
 C           -2.08087731        2.76281411       -1.88699295
 C           -1.63559142        2.47032820       -3.24264423
 C           -3.53969378       -0.52224854       -1.14259731
 C           -2.93873396       -1.52336938       -2.00792237
 C           -3.35815719        0.75844911       -1.77892478
 C           -1.32366554       -0.95297206       -3.78824348
 C           -1.03270821        0.35840216       -4.34747269
 C           -2.03676066        1.28260735       -3.83878636
 C           -2.67323373       -0.90639383       -3.28165808
 C           -3.05944465        0.49182300       -3.17777812
