   70
C70 / DATE: 7/ 1/2024 / Origin: Program Fullerene / C70 from database
 C            1.58341799        0.03499768        4.57482540
 C            0.75485462       -1.15543002        4.51570033
 C            1.23161624       -1.98395873        3.42349843
 C            2.55413281       -0.04683392        3.49763174
 C            2.39781351       -1.32868539        2.85298812
 C            2.41958434        1.13661135        2.67764539
 C            0.72731321        1.17654749        4.30777233
 C            1.27502760        1.87940861        3.17343570
 C           -0.62679742       -0.72773709        4.49726407
 C           -0.63612241        0.70483861        4.21835998
 C           -1.54494621       -1.53202504        3.84231525
 C            0.30488430       -2.57613434        2.55939663
 C           -1.06108266       -2.49957242        2.86008075
 C            0.70176064       -2.87281892        1.24753809
 C            2.56474024       -1.40284086        1.48160865
 C            1.97849460       -2.47658519        0.83655942
 C            2.56512377        1.01539274        1.29528608
 C            2.82227334       -0.24257250        0.73774256
 C            1.99376471        1.99943409        0.48889878
 C            0.41414071        2.41233711        2.23091538
 C            0.97876364        2.79982418        1.02934732
 C           -1.46221799        1.19775377        3.20586116
 C           -0.95063233        2.08317086        2.24399126
 C           -2.72068470       -0.89606336        3.28308817
 C           -2.63936476        0.51118706        2.93377458
 C           -2.02751133       -2.54574747        1.77415948
 C           -3.09588957       -1.62772319        2.08706141
 C           -0.27990677       -3.12568778        0.28219252
 C           -1.55227925       -2.61012789        0.47318174
 C            0.09698666       -3.47204601       -1.00569715
 C            2.39815420       -2.74392943       -0.45412447
 C            1.50628077       -3.46788913       -1.33201332
 C            2.93033043       -0.36105073       -0.65352846
 C            2.97075213       -1.64380861       -1.20854757
 C            2.16857070        1.92530275       -0.89391414
 C            2.62573175        0.73582092       -1.46860604
 C            1.63759547        2.92440057       -1.70758089
 C            0.20625902        3.59360193        0.20413970
 C            0.62238344        3.80107022       -1.16340141
 C           -1.74560258        2.45918973        1.14592606
 C           -1.22713026        3.37820224        0.22632280
 C           -3.27280630        0.66809314        1.64138090
 C           -3.47427088       -0.66214752        1.08389553
 C           -2.85185622        1.67883095        0.78653505
 C           -2.13803895       -1.84074651       -0.54581320
 C           -3.11275299       -0.87810198       -0.24082711
 C           -0.61972601       -2.86475390       -2.11377367
 C           -1.59585031       -1.90485130       -1.83966086
 C            1.66008679       -2.92864853       -2.66915364
 C            2.63586987       -1.85103679       -2.60754458
 C            0.33283258       -2.65064964       -3.19214917
 C            2.58198074        0.57969433       -2.85670787
 C            2.46188110       -0.74988636       -3.42936337
 C            1.22114867        2.59602021       -3.05599967
 C            1.75575783        1.47055532       -3.65727761
 C           -0.55627706        3.69152586       -2.00703952
 C           -1.68371314        3.36454522       -1.15524974
 C           -0.21976869        2.80807701       -3.11049917
 C           -3.18351898        1.53520737       -0.55929161
 C           -3.29222572        0.19190685       -1.10386926
 C           -2.56442507        2.37919359       -1.56165477
 C           -1.83063005       -0.87283944       -2.75720137
 C           -1.06356601        1.74212592       -3.43277972
 C           -2.65864846        0.18227106       -2.40351022
 C           -2.24091008        1.54220058       -2.71082675
 C            0.16833256       -1.56219988       -4.03299965
 C            1.32432038       -0.73235364       -4.33505869
 C            0.87288964        0.64167214       -4.45376243
 C           -0.96652308       -0.67927074       -3.83274472
 C           -0.55017474        0.67574281       -4.16814894
