   70
C70 / DATE: 7/ 1/2024 / Origin: Program Fullerene / C70 from database
 C            1.35496280       -0.05487176        4.11648984
 C            2.48190983       -0.24122226        3.21908484
 C            2.44172565       -1.61911965        2.75659533
 C            0.48691945       -1.21572858        3.98278208
 C            1.11943210       -2.13693667        3.06820607
 C           -0.84130890       -0.74049162        3.67220307
 C            0.53149330        1.13058603        3.98210538
 C           -0.85341114        0.69173895        3.90657590
 C            0.97015704        2.16611893        3.16727722
 C            2.83523561        0.76581907        2.32527708
 C            2.14987689        1.98260852        2.33292298
 C            3.58991132        0.42663540        1.20749223
 C            3.00999093       -1.94923727        1.52941995
 C            3.73403268       -0.97474935        0.83835728
 C            2.47884380       -3.03818848        0.83983718
 C            0.37503836       -2.71260036        2.04566651
 C            1.08601846       -3.39737687        1.06348525
 C           -1.51254276       -1.24586646        2.56190669
 C           -0.90756819       -2.22126520        1.74998120
 C           -2.63586638       -0.55538515        2.09967236
 C           -1.78234625        1.46361738        3.22404945
 C           -2.78029666        0.79563186        2.40395964
 C            0.00506136        2.94765901        2.41033762
 C           -1.34676545        2.65055860        2.50245723
 C            1.92089292        2.68399036        1.07734783
 C            0.57829121        3.23370005        1.10555095
 C            3.43219137        1.19402991       -0.01735268
 C            2.41090272        2.13796260       -0.10219400
 C            3.87301822       -1.03734125       -0.61233686
 C            3.70701878        0.30947932       -1.13698873
 C            2.76444591       -3.21504516       -0.57205639
 C            3.35890589       -2.12095866       -1.31240209
 C            0.47682974       -3.63608757       -0.23113072
 C            1.52368722       -3.58237747       -1.23491112
 C           -1.52577752       -2.60057865        0.55483180
 C           -0.74363413       -3.04293852       -0.50916828
 C           -3.36756592       -1.07157739        1.03964852
 C           -2.83004768       -2.19660911        0.30191581
 C           -3.96648359       -0.15311568        0.08021963
 C           -3.17352926        1.71703550        1.35201874
 C           -2.17888273        2.77665879        1.31903713
 C           -3.65729893        1.20595360        0.14919317
 C           -0.21524378        3.14240861       -0.03317144
 C           -1.61119321        3.11834604        0.09737678
 C            1.66774074        2.25787826       -1.28022689
 C            0.39068310        2.83056959       -1.25532564
 C            3.03763773        0.50943425       -2.33496871
 C            2.10796492        1.61921939       -2.43954669
 C            2.54673615       -1.89701390       -2.49902204
 C            1.34341308       -2.69963573       -2.37224785
 C            2.44425792       -0.62226412       -3.03463785
 C           -0.97732222       -2.53923422       -1.79088433
 C            0.09862714       -2.10473983       -2.56267878
 C           -3.26087860       -2.06786913       -1.07840081
 C           -3.99653294       -0.82222601       -1.20716878
 C           -2.25185259       -2.10418589       -2.11987264
 C           -3.49281624       -0.12244686       -2.37050522
 C           -2.38795436       -0.90073711       -2.91956525
 C           -3.43227097        1.93200854       -1.02521250
 C           -2.40786708        2.96666353       -1.03030734
 C           -3.38967773        1.25846310       -2.31807506
 C           -0.35690601        2.87230506       -2.42955408
 C           -1.79671570        2.98926047       -2.34066122
 C           -2.37587102        1.90893269       -3.12470156
 C            1.14668024        1.26489870       -3.46762562
 C            1.16353992       -0.18190612       -3.56267318
 C            0.00325688       -0.89512855       -3.25926364
 C           -1.23662699       -0.25602546       -3.37512063
 C           -0.07573803        1.90975148       -3.47890754
 C           -1.27853845        1.11315845       -3.64441658
