   70
C70 / DATE: 7/ 1/2024 / Origin: Program Fullerene / C70 from database
 C            1.57566048        0.04769760        4.42345443
 C            0.77010618       -1.13191835        4.16298188
 C            1.53373671       -1.99861611        3.29867146
 C            2.69177134        0.03117556        3.49294937
 C            2.72877304       -1.27468516        2.89099161
 C            2.56708359        1.17249447        2.61601420
 C            0.76640538        1.20756651        4.11004238
 C            1.48621085        1.99514351        3.13102390
 C           -0.52759800       -0.69667617        3.70378916
 C           -0.56491535        0.75449598        3.75463461
 C           -1.09587707       -1.32216747        2.60578939
 C            0.87287481       -2.74128772        2.32266358
 C           -0.43291663       -2.37648410        1.95409365
 C            1.68941624       -3.34495373        1.37082130
 C            3.11048341       -1.39484248        1.56515390
 C            2.92936160       -2.66280695        1.03529240
 C            2.66730234        0.98975583        1.23336474
 C            2.97207790       -0.28150454        0.70909206
 C            2.12284000        1.97665695        0.39889942
 C            0.74010261        2.70727636        2.21124933
 C            1.32354357        2.97141508        0.98121183
 C           -1.22709091        1.44152285        2.73882125
 C           -0.65206394        2.62202632        2.27108258
 C           -2.11875928       -0.65495088        1.94433974
 C           -2.10274515        0.74292130        1.89851425
 C           -2.88569627       -1.37024718        1.04158055
 C           -0.99894951       -2.90162788        0.78457755
 C           -2.32402377       -2.59081228        0.49178524
 C            1.11575767       -3.82929126        0.13127736
 C           -0.17166636       -3.43033288       -0.21552955
 C            3.19811795       -2.88101077       -0.36117160
 C            2.17645701       -3.78629068       -0.85983115
 C            2.90222971       -0.47881141       -0.67912871
 C            3.21498275       -1.72426279       -1.22368990
 C            2.08763556        1.76678433       -0.98435956
 C            2.27577793        0.47855670       -1.47989015
 C            1.48256535        2.70815028       -1.81654202
 C            0.72466018        3.94594870        0.19522856
 C            0.89030879        3.89446748       -1.23864588
 C           -1.38867138        3.40769362        1.39617502
 C           -0.66446157        4.26601290        0.47225810
 C           -2.71274019        1.41741815        0.83132367
 C           -2.47470072        2.78253715        0.66137213
 C           -3.56701181       -0.66449978       -0.02444500
 C           -3.33282572        0.69520969       -0.19344423
 C           -2.78838130       -2.71431058       -0.87157970
 C           -3.56756176       -1.52983937       -1.19161378
 C           -0.52654168       -3.32111132       -1.57217920
 C           -1.80379399       -2.89708883       -1.91350392
 C            1.85214920       -3.36242071       -2.20130089
 C            2.58014173       -2.12898077       -2.46069083
 C            0.46369371       -3.11679464       -2.52805178
 C            1.59636482        0.09690679       -2.64486977
 C            1.66190576       -1.20821922       -3.09413741
 C            0.41032643       -1.90252661       -3.32183695
 C            0.59217085        2.23441308       -2.86056461
 C            0.52636104        0.86517820       -3.07760231
 C           -0.41561355        4.09274800       -1.85062065
 C           -1.38381034        4.28175234       -0.78766381
 C           -2.49447657        3.35320249       -0.67646353
 C           -0.62566003        3.02085793       -2.80631933
 C           -3.37872081        1.22469555       -1.48386275
 C           -2.80154571        2.52894304       -1.74935612
 C           -1.84829492        2.36602075       -2.84434570
 C           -3.08533391       -0.99869337       -2.45402580
 C           -1.93192393       -1.79070768       -2.85229901
 C           -0.77296755       -1.16349814       -3.31925533
 C           -0.70221504        0.23680843       -3.32503315
 C           -3.04519400        0.37651719       -2.61639383
 C           -1.88460779        0.97130067       -3.25027267
