   70
C70 / DATE: 7/ 1/2024 / Origin: Program Fullerene / C70 from database
 C            1.49184222        0.07806315        4.40946019
 C            0.68641741       -1.11379536        4.20471328
 C            1.41744281       -1.99040974        3.32435225
 C            2.60510181        0.02336897        3.47686263
 C            2.63036714       -1.29870408        2.91184639
 C            2.48923262        1.13677920        2.56656383
 C            0.67716889        1.22288056        4.05266743
 C            1.35632667        1.93827956        2.99910122
 C           -0.63397856       -0.69663951        3.79898769
 C           -0.66349173        0.75443929        3.78504625
 C           -1.27080606       -1.36435505        2.75914258
 C            0.72916423       -2.71965318        2.35704010
 C           -0.58781605       -2.34916746        2.01818584
 C            1.52350025       -3.34836272        1.39809989
 C            3.03074445       -1.46295858        1.59532622
 C            2.80269454       -2.73034277        1.08679711
 C            2.66432339        0.92164099        1.19681054
 C            2.97664084       -0.36155600        0.71336231
 C            2.14435275        1.87472159        0.31941968
 C            0.59347973        2.53771378        2.01326784
 C            1.22310396        2.80715945        0.81330157
 C           -1.39053095        1.36755115        2.77247711
 C           -0.80146440        2.39116070        2.01371337
 C           -2.38091261       -0.74312767        2.19250016
 C           -2.45273685        0.65804061        2.22497191
 C           -3.13336573       -1.47225736        1.28251221
 C           -1.14029536       -2.80021698        0.80720063
 C           -2.44802503       -2.45690644        0.47496314
 C            0.93989758       -3.75325305        0.13746678
 C           -0.29170263       -3.22041204       -0.21569449
 C            3.10704205       -2.99355574       -0.29417822
 C            2.02011080       -3.79839652       -0.82875227
 C            3.02326406       -0.57678792       -0.67784357
 C            3.27883562       -1.85938009       -1.17061804
 C            2.29868699        1.70070560       -1.05668885
 C            2.57815121        0.42357076       -1.56006321
 C            1.89505429        2.71778480       -1.92215628
 C            0.58419130        3.67854272       -0.04520897
 C            1.01960324        3.75709840       -1.42133263
 C           -1.54114099        2.98604734        0.97503917
 C           -0.86649424        3.70533452       -0.01837458
 C           -3.32613908        1.34905872        1.39716351
 C           -2.81935787        2.50140328        0.67730250
 C           -4.10553539       -0.80870746        0.43665457
 C           -4.22031931        0.62900273        0.51291541
 C           -2.73585188       -2.14274687       -0.91249108
 C           -3.79210222       -1.15498202       -0.94056287
 C           -0.54860480       -2.80926449       -1.53292637
 C           -1.66221281       -2.01841322       -1.78206915
 C            1.76787202       -3.33504522       -2.17195744
 C            2.69907697       -2.24998607       -2.43477475
 C            0.44299070       -2.84976414       -2.50171219
 C            2.18545516        0.08507316       -2.87103772
 C            1.98646175       -1.24699918       -3.18220742
 C            0.61126625       -1.69055350       -3.35210940
 C            1.40276123        2.36030494       -3.23178907
 C            1.37955829        0.96265113       -3.57534669
 C           -0.16994427        3.78192148       -2.25813444
 C           -1.31356147        3.57412419       -1.39433590
 C            0.04266332        2.85838784       -3.34769978
 C           -3.20148277        2.34053989       -0.71992122
 C           -4.02998740        1.15759672       -0.82716757
 C           -3.56022626        0.07562103       -1.66460852
 C           -2.23751575        2.57930543       -1.68951727
 C           -1.51762627       -0.85917392       -2.56239930
 C           -0.38819437       -0.71369136       -3.38549268
 C           -0.00407768        0.56612223       -3.79285263
 C           -0.83593308        1.70787055       -3.46440800
 C           -2.35641406        0.24325513       -2.33930751
 C           -1.87699864        1.53644411       -2.55949522
