   70
C70 / DATE: 7/ 1/2024 / Origin: Program Fullerene / C70 from database
 C            1.14424004        0.02475573        4.69637462
 C            2.41739600       -0.28476970        4.09863153
 C            2.34261029       -1.66161397        3.62762431
 C            0.34904674       -1.19184632        4.63834052
 C            0.94353096       -2.01470657        3.60672869
 C           -1.02185070       -0.78248696        4.47696278
 C            0.33870209        1.06277491        4.09074660
 C           -1.02535428        0.66980856        4.35559785
 C            0.66199756        1.53413309        2.81511387
 C            2.85457948        0.50157313        2.96473751
 C            1.93334988        1.29061402        2.26977412
 C            3.06805760       -1.70796751        2.38366220
 C            3.68837473       -0.40388191        2.20951906
 C            2.47026657       -2.29394904        1.27468757
 C            0.30020272       -2.14812248        2.37024997
 C            1.06550471       -2.35968085        1.21048090
 C           -1.75537864       -1.27873774        3.33401328
 C           -1.06998532       -1.86246979        2.26212664
 C           -2.03171352        0.99815879        3.37171515
 C           -2.71759998       -0.23736421        3.04952111
 C           -0.35010788        2.05228092        1.99885981
 C           -1.70200970        1.84079668        2.31810466
 C           -0.01578422        2.53930249        0.73520652
 C            2.17149984        1.56086330        0.91488206
 C            1.15109542        2.08973450        0.12205650
 C            4.04700614       -0.03971758        0.92551404
 C            3.32147854        1.05853254        0.30203373
 C            3.20063596       -2.22217942        0.09727094
 C            4.11162609       -1.10053634       -0.06009569
 C            2.53894402       -2.42684742       -1.16907746
 C            0.42339031       -2.45626333       -0.03398263
 C            1.17730066       -2.70329170       -1.19134536
 C           -1.68183968       -1.85351634        1.00570011
 C           -0.93050330       -2.11058557       -0.14052339
 C           -3.38574983       -0.29246069        1.84310396
 C           -2.94917262       -1.27950644        0.87186474
 C           -2.65566368        1.99088385        1.31529111
 C           -3.55787377        0.94475999        1.10130585
 C           -0.99772771        3.15422753       -0.03074574
 C           -2.38726105        2.87713036        0.28152933
 C           -0.85949821        3.18130339       -1.47570416
 C            1.21489953        1.97584121       -1.27539154
 C            0.18927983        2.48930669       -2.07298266
 C            3.30968642        0.81409697       -1.13065855
 C            3.85893432       -0.50453888       -1.35390752
 C            3.05720071       -1.44133028       -2.10907330
 C            2.18813006        1.16905002       -1.86342565
 C            2.16741284       -0.94061712       -3.04693115
 C            1.86305995        0.42978711       -3.00320241
 C            0.55907426       -2.65335915       -2.43891299
 C            1.18167264       -1.82731390       -3.45898373
 C           -1.52157949       -1.94811176       -1.39609505
 C           -0.86472852       -2.41407509       -2.52052231
 C           -3.38828397       -0.80450025       -0.43077244
 C           -3.89314879        0.54907099       -0.25505418
 C           -2.62017135       -1.10000660       -1.54639202
 C           -3.10809040        2.74100184       -0.97097857
 C           -2.18874154        3.06360976       -2.04657669
 C           -3.73061473        1.46720561       -1.28030571
 C           -2.73764479       -0.29740922       -2.68640604
 C           -2.39510266        2.10056633       -3.10831384
 C           -3.19258003        1.01544912       -2.55191355
 C            0.03205656        2.01338865       -3.37926669
 C            0.89890348        0.94870449       -3.86252958
 C           -1.30870530        1.76797352       -3.90198550
 C            0.15033645       -1.37257214       -4.36334516
 C           -1.12789498       -1.77389346       -3.79657631
 C           -2.00522281       -0.61926505       -3.82472645
 C            0.08471039        0.04247258       -4.65466999
 C           -1.29861030        0.45033612       -4.50795765
