   70
C70 / DATE: 7/ 1/2024 / Origin: Program Fullerene / C70 from database
 C            1.41394198       -0.00998660        4.97868186
 C            0.62384852       -1.18363344        4.67820200
 C            1.27015999       -1.91291833        3.59584664
 C            2.60096569       -0.06641093        4.15135517
 C            2.46462101       -1.18162092        3.22794438
 C            2.77853807        1.25183292        3.58669914
 C            0.64272592        1.14706482        4.55001666
 C            1.47466669        1.90674269        3.64674812
 C           -0.73427037       -0.73071807        4.46056387
 C           -0.63429663        0.66668748        4.06762498
 C           -1.54106903       -1.54912845        3.69729567
 C            0.45262341       -2.44396562        2.60406127
 C           -0.89027599       -2.60252088        2.93604230
 C            0.81261529       -2.29928578        1.25222361
 C            2.74527515       -0.95862707        1.88487360
 C            1.94431957       -1.54829627        0.89937981
 C            3.48087610        1.33721899        2.39786030
 C            3.53179087        0.14626540        1.55511613
 C            3.16795553        2.44933719        1.52593946
 C            0.92408308        2.41136266        2.46924346
 C            1.81026627        2.95780776        1.54816664
 C           -1.07528166        1.04414585        2.79598480
 C           -0.32736531        1.94906619        2.02442048
 C           -2.45142050       -0.92533096        2.76198650
 C           -2.09187255        0.29544102        2.19217871
 C           -1.82698583       -3.00240485        1.91717913
 C           -2.88322779       -1.99771806        1.89830683
 C           -0.04219811       -2.77844697        0.24368972
 C           -1.35108380       -3.14078069        0.56111266
 C            0.24546677       -2.51748012       -1.10081115
 C            2.19614916       -1.26726932       -0.44649704
 C            1.46031770       -1.91410849       -1.43983445
 C            3.59590001        0.58879481        0.17708738
 C            3.45407620        2.03059862        0.16947870
 C            2.90970973       -0.11742373       -0.79539733
 C            1.39608164        3.13570196        0.17409324
 C            2.43259083        2.60036303       -0.69017945
 C           -0.78550966        2.29305809        0.74521483
 C            0.08308473        2.88790125       -0.17842874
 C           -2.49199263        0.59948502        0.88557163
 C           -1.99800529        1.76222041        0.28932965
 C           -3.15078656       -1.69188623        0.51562745
 C           -2.42091522       -2.65176841       -0.28114155
 C           -3.13038862       -0.37143896        0.09099441
 C           -0.81319808       -2.53280468       -2.02371505
 C           -2.10062665       -2.27541214       -1.56920175
 C           -0.56384439       -2.36295396       -3.38068068
 C            1.69771355       -1.54390046       -2.76462240
 C            0.73929890       -1.89786476       -3.79317577
 C            2.53208302        0.57195199       -1.94198573
 C            2.02506741        1.86416200       -1.79914932
 C            2.12404313       -0.18137356       -3.02600473
 C           -0.19259190        2.75187057       -1.53182213
 C            0.77277545        2.14795631       -2.35065696
 C           -2.46082882        2.12230965       -0.97723220
 C           -1.52468259        2.73269876       -1.90049974
 C           -3.21304045       -0.16503146       -1.28414640
 C           -2.79194937       -1.20454087       -2.12894836
 C           -3.21509747        1.14692585       -1.73601893
 C           -1.55584522       -1.65779321       -4.18336585
 C           -2.66245175       -1.00458311       -3.50075819
 C            0.54245184       -0.72420706       -4.63149423
 C            1.16358293        0.39405014       -3.94566581
 C            0.38972806        1.47245200       -3.51490718
 C           -0.86309618       -0.64809497       -4.96886164
 C           -1.88299920        2.33515746       -3.24503277
 C           -3.01855515        1.43321870       -3.14447365
 C           -2.78327984        0.33041652       -4.05130998
 C           -0.87772192        1.68516562       -4.05858209
 C           -1.55263966        0.61229767       -4.77153988
