   70
C70 / DATE: 7/ 1/2024 / Origin: Program Fullerene / C70 from database
 C            1.36931127       -0.10993570        4.25268435
 C            2.64797581       -0.45723028        3.68177321
 C            2.61071761       -1.86641670        3.31972273
 C            0.51873541       -1.29026771        4.20878317
 C            1.27473002       -2.36623836        3.59649186
 C           -0.75056925       -0.89507033        3.61892914
 C            0.62267429        0.98340903        3.66562380
 C           -0.75469523        0.55354350        3.55265705
 C            1.15976370        1.73165757        2.61977979
 C            3.11358039        0.27869583        2.52330553
 C            2.36285367        1.33673008        2.00604237
 C            3.14829919       -1.99010789        1.97258462
 C            3.68299212       -0.69122981        1.60611860
 C            2.45205258       -2.73779981        1.02365711
 C            0.65155767       -3.16228052        2.64698094
 C            1.37817053       -3.52353731        1.44300504
 C           -1.26586854       -1.61859897        2.54462862
 C           -0.71341782       -2.85639623        2.23773927
 C           -2.06314305       -0.95785401        1.60443754
 C           -1.53863458        1.16335685        2.58982128
 C           -2.40974080        0.37035143        1.84874637
 C            0.28976851        2.58164984        1.93360270
 C           -1.08878945        2.35841528        2.03323721
 C            0.79326085        3.34967707        0.89144308
 C            2.67481832        1.80201627        0.72454090
 C            1.97298072        2.87917221        0.19747878
 C            3.77058219       -0.35990977        0.26556698
 C            3.35203256        0.96422964       -0.16111760
 C            2.62425133       -2.46102542       -0.33893691
 C            3.30043920       -1.30664604       -0.73146644
 C            1.84134531       -3.11626056       -1.28894021
 C            0.38582218       -3.95479752        0.48092583
 C           -0.89625000       -3.40696112        0.91008862
 C            0.70835189       -3.92384532       -0.86345771
 C           -2.25323413       -1.49807791        0.32244708
 C           -1.69579375       -2.73652367       -0.01130644
 C           -2.94460233       -0.76080750       -0.65176615
 C           -3.32308886        0.99867114        1.01546885
 C           -3.60181368        0.41177948       -0.28168571
 C           -1.97554557        3.08356724        1.24334906
 C           -3.21377141        2.43775145        0.84316484
 C           -0.10748692        3.91990638       -0.09819732
 C           -1.47714797        3.83497028        0.10459009
 C            1.66771353        2.88192114       -1.22383055
 C            0.45047245        3.64941974       -1.41513044
 C            2.88159377        0.85968349       -1.53346767
 C            2.80451487       -0.54609711       -1.87090038
 C            1.88283640        1.71922324       -1.96052391
 C            1.44627555       -2.39459692       -2.49079506
 C            1.70978615       -1.02876322       -2.57771024
 C           -0.36375137       -3.71456221       -1.81614661
 C           -1.59171526       -3.09295753       -1.35027696
 C            0.15759718       -2.89869783       -2.89825436
 C           -2.74525160       -1.03305819       -2.01022096
 C           -1.99979378       -2.14928029       -2.36840388
 C           -0.86151493       -1.94383198       -3.25011215
 C           -2.75445287        0.02137928       -2.92225583
 C           -3.73954897        1.49789176       -1.24177198
 C           -3.45457340        2.74590383       -0.55388727
 C           -2.36398950        3.58653930       -1.02230260
 C           -3.27067790        1.31931623       -2.53418464
 C           -0.38827563        3.32189891       -2.47011964
 C           -1.83151498        3.36524871       -2.28783783
 C           -2.40972584        2.33118423       -3.12986184
 C            0.88397912        1.24849754       -2.81582587
 C            0.71249665       -0.13652262       -3.01427739
 C           -0.49934385       -0.63547648       -3.53351857
 C           -1.56362751        0.23268806       -3.72936452
 C           -0.07503455        2.15120853       -3.27332589
 C           -1.31794771        1.65010831       -3.80823487
