   70
C70 / DATE: 7/ 1/2024 / Origin: Program Fullerene / C70 from database
 C            1.48845817       -0.05375500        4.95417780
 C            0.69307179       -1.26443718        4.90971877
 C            1.36209528       -2.21646985        4.03416131
 C            2.61436764       -0.24063640        4.06014986
 C            2.43737382       -1.50573101        3.36709322
 C            2.72388986        0.95685630        3.25586841
 C            0.67909407        1.02231680        4.40616242
 C            1.45270999        1.65943851        3.36108139
 C           -0.67118217       -0.87823486        4.59647799
 C           -0.61630126        0.47328767        4.06067081
 C           -1.47272988       -1.80902272        3.95736992
 C            0.57575371       -3.08485271        3.29509857
 C           -0.85930150       -3.05390901        3.51592165
 C            0.78906814       -3.17767909        1.85697347
 C            2.52707996       -1.51592265        1.97304577
 C            1.59916419       -2.24408853        1.21881103
 C            3.27128829        0.82306575        1.99211233
 C            3.24531968       -0.49418644        1.36441764
 C            2.85351261        1.75884763        0.97100717
 C            0.81378060        2.04217733        2.18400224
 C            1.61021069        2.37346778        1.08842175
 C           -1.13740315        0.72663654        2.79248966
 C           -0.51317500        1.65631683        1.95524091
 C           -2.34005195       -1.36290792        2.88098333
 C           -2.10936191       -0.12630350        2.26894441
 C           -1.49960692       -3.44411619        2.27732345
 C           -0.47380626       -3.54784429        1.25017014
 C           -2.59919485       -2.52537999        2.05046244
 C           -0.78221865       -3.07697733       -0.01998243
 C            1.33805794       -1.90058299       -0.11893132
 C            0.18308951       -2.38011841       -0.75800189
 C            3.12433677       -0.28978593       -0.06607323
 C            3.18827394        1.14119886       -0.29126545
 C            2.19828352       -1.02894978       -0.79672620
 C            2.57006756        1.63175815       -1.42174114
 C            0.99583605        2.81922136       -0.07938488
 C            1.71713536        2.71975467       -1.27118699
 C           -1.09190777        1.96576001        0.72640810
 C           -0.39785398        2.80984211       -0.13575104
 C           -2.60702403        0.09778827        0.98173143
 C           -2.12223131        1.16542018        0.22097821
 C           -2.97342865       -2.30554444        0.74085215
 C           -2.12264470       -2.84937552       -0.30199552
 C           -3.25340401       -0.94471579        0.32918711
 C           -2.46001594       -2.13498922       -1.50430218
 C           -3.24373496       -0.97217143       -1.11630556
 C           -0.14240739       -1.92036347       -2.04493006
 C           -1.48486348       -1.94153474       -2.46419152
 C            1.84748571       -0.55317361       -2.06372315
 C            2.28267491        0.72807788       -2.43166906
 C            0.79421775       -1.15553839       -2.75437795
 C            1.93494654        1.25871861       -3.66542888
 C            1.18894733        3.29045967       -2.42339865
 C            1.45174499        2.63030159       -3.69444712
 C           -1.02841746        3.24270323       -1.29469362
 C           -0.20755587        3.68101567       -2.41006367
 C           -2.52473775        1.31037402       -1.11760996
 C           -3.01952320        0.20343345       -1.81945338
 C           -2.11710008        2.44202239       -1.82508383
 C           -1.86937619       -1.11731598       -3.50874926
 C           -2.67249316        0.04407583       -3.16045617
 C            0.50093885       -0.73529600       -4.05328415
 C            1.11377198        0.47747735       -4.56128709
 C           -0.88087783       -0.70848843       -4.47135039
 C            0.23067607        2.65929407       -4.47874627
 C           -0.82112116        3.20702164       -3.63859699
 C           -1.95718830        2.37647409       -3.27150618
 C           -2.17905679        1.17064081       -3.92431998
 C            0.05591293        1.34430715       -5.06573274
 C           -1.20133873        0.65084661       -4.87276697
