   70
C70 / DATE: 7/ 1/2024 / Origin: Program Fullerene / C70 from database
 C            1.16111981       -0.04524782        4.35742079
 C            2.48712021       -0.35344940        3.87674225
 C            2.47511857       -1.72540214        3.39863371
 C            0.33165970       -1.22345969        4.14851615
 C            1.09134166       -2.16551411        3.36259560
 C           -0.93455833       -0.77394028        3.63100477
 C            0.45843604        1.08694802        3.78244755
 C           -0.92174694        0.68002590        3.62337694
 C            1.04842240        1.83895215        2.77081525
 C            3.04570876        0.46817589        2.82553930
 C            2.39494204        1.62803800        2.41774325
 C            3.24579857       -1.77818024        2.16942623
 C            3.58649341       -0.41111312        1.80143902
 C            2.82421227       -2.64495292        1.17800543
 C            0.57357861       -2.63861380        2.15678792
 C            1.47584519       -3.19195618        1.25698213
 C           -1.50082831       -1.42654985        2.54317938
 C           -0.68018913       -2.19319596        1.69680504
 C           -2.64700566       -0.84070664        2.03078958
 C           -1.71638249        1.32420761        2.68302214
 C           -2.79262451        0.59938970        2.17456890
 C            0.21489856        2.60580684        1.94882907
 C           -1.16508502        2.35478581        1.91248208
 C            0.77753602        3.49166309        1.03397784
 C            2.89687012        2.22941500        1.27067823
 C            2.15863225        3.30681479        0.65190105
 C            3.51820511        0.00060798        0.46599474
 C            3.40954694        1.36863310        0.21447979
 C            3.02987808       -2.26451130       -0.20158810
 C            3.12812914       -0.91261784       -0.52403013
 C            1.05364733       -3.48419974       -0.09328698
 C            2.15165571       -3.11449084       -0.97711930
 C           -1.06845305       -2.43595610        0.36068835
 C           -0.24996103       -3.20102110       -0.48192655
 C           -3.11063537       -1.19805459        0.71190726
 C           -2.27301813       -1.91131123       -0.13429566
 C           -3.52744403        1.09050915        1.02469517
 C           -3.84836669       -0.05898035        0.19204366
 C           -1.94969521        2.96339889        0.93030872
 C           -3.13895711        2.28513019        0.43643233
 C            0.05372702        3.81464202       -0.17937866
 C           -1.31395393        3.60982943       -0.20665060
 C            2.18879662        3.09455062       -0.78713253
 C            2.81744227        1.81511216       -1.03166002
 C            0.84828442        3.31151948       -1.28637684
 C            2.54658050       -0.45155185       -1.71283518
 C            2.17095389        0.88204221       -1.82603635
 C            1.85021840       -2.74182967       -2.27344690
 C            2.08566048       -1.35852115       -2.66085843
 C           -0.53947739       -3.27871235       -1.84143905
 C            0.55027608       -3.11785178       -2.78896573
 C           -2.53390237       -1.89715011       -1.50862954
 C           -1.68397558       -2.57203215       -2.37675088
 C           -3.95384498        0.09276891       -1.18135983
 C           -3.39917261       -0.93891364       -2.03969905
 C           -3.15774696        2.41518933       -1.01237560
 C           -1.91106653        3.05055008       -1.40713110
 C           -3.66060593        1.38260826       -1.79339982
 C            0.27822213        2.37857928       -2.14727154
 C            0.98610267        1.21819937       -2.49613591
 C           -1.09723137        2.43762055       -2.36117280
 C            1.01043890       -0.95287622       -3.55095073
 C            0.15483035       -2.10832193       -3.74906445
 C           -1.27408275       -1.92708020       -3.62163713
 C            0.41745495        0.29974301       -3.38715128
 C           -3.04800374       -0.30812010       -3.29699537
 C           -3.03384601        1.12532967       -3.07821802
 C           -1.67531914        1.59217469       -3.29771630
 C           -1.78987398       -0.67524793       -3.91262972
 C           -0.90073092        0.47867310       -3.81494355
