   70
C70 / DATE: 7/ 1/2024 / Origin: Program Fullerene / C70 from database
 C            1.63951969        0.05242457        4.56895893
 C            0.81847472       -1.14447869        4.57113653
 C            1.44103248       -2.10425370        3.68241083
 C            2.62236772       -0.08609549        3.50676792
 C            2.52134591       -1.42417680        2.98115318
 C            2.44610482        1.01257124        2.58892449
 C            0.78383610        1.17141130        4.22637251
 C            1.39415574        1.86835771        3.11054012
 C           -0.55266237       -0.75524739        4.31179269
 C           -0.56710372        0.67514986        4.04826051
 C           -1.33594127       -1.59194040        3.53336949
 C            0.64082502       -2.97701563        2.95123085
 C           -0.74944728       -2.79252197        2.94918743
 C            1.24024688       -3.60902715        1.86741114
 C            2.64362511       -1.63265441        1.61085471
 C            2.29673909       -2.89704941        1.16207336
 C            2.46690866        0.76795110        1.21920575
 C            2.55006628       -0.54304399        0.72465011
 C            1.96495991        1.75868045        0.38945218
 C            0.55495864        2.48145111        2.18944185
 C            1.04123241        2.67673853        0.90070283
 C           -1.29534196        1.17744870        2.97346984
 C           -0.82222310        2.33372624        2.34879374
 C           -2.22638927       -1.01242550        2.54197787
 C           -2.17023669        0.34577508        2.26427539
 C           -1.53651479       -3.10969295        1.76132390
 C           -2.32422730       -1.93609680        1.42757749
 C            0.41206326       -4.26807835        0.87892982
 C           -0.96774673       -3.84927376        0.73985859
 C            2.13276978       -3.13584838       -0.25109167
 C            1.05806969       -4.10232037       -0.40823365
 C            2.36093381       -0.76555173       -0.65533447
 C            2.19557026       -2.07188308       -1.14144764
 C            2.10782838        1.62106016       -0.98048442
 C            2.18543920        0.33163491       -1.52392949
 C            1.76606132        2.70916756       -1.77146562
 C            0.29165877        3.45968356        0.02361262
 C            0.73437856        3.60849565       -1.28972664
 C           -1.65212415        2.95674769        1.42622052
 C           -1.04570409        3.70085961        0.33525938
 C           -2.65633356        0.78676180        1.03666052
 C           -2.71181523        2.15916919        0.84297666
 C           -2.30625744       -1.42743674        0.12834773
 C           -2.57925880       -0.07180001       -0.07232447
 C           -1.16044214       -3.42031725       -0.63644889
 C            0.02533382       -3.81438396       -1.38146848
 C           -1.76220751       -2.18671419       -0.91235845
 C            1.61032459       -2.26521976       -2.38663190
 C            0.38274358       -3.04552728       -2.47125627
 C            1.89059508        0.11368374       -2.88261244
 C            1.45589343       -1.14273217       -3.28243736
 C            1.57626559        2.52919287       -3.18940444
 C            1.54693190        1.18245214       -3.70898009
 C           -0.22965855        3.78738195       -2.36733064
 C            0.33047480        3.18531095       -3.56193120
 C           -2.03200938        3.74978988       -0.72855988
 C           -2.98711158        2.68207603       -0.47610057
 C           -1.58324540        3.62379891       -2.09996289
 C           -2.57735982        0.44366421       -1.37399694
 C           -2.92814950        1.77367398       -1.59775802
 C           -2.30542116        2.49991976       -2.68810770
 C           -1.56401119       -1.60141510       -2.16760995
 C           -0.60626032       -2.14772926       -3.02048357
 C            0.13773506       -1.26512446       -3.88996841
 C           -2.02374666       -0.30485330       -2.41540363
 C            0.35075782        1.05703598       -4.52574145
 C           -0.47306935        2.22826848       -4.29665558
 C           -1.73086386        1.77637720       -3.72249611
 C           -0.48317750       -0.11243725       -4.32946593
 C           -1.67216620        0.32647458       -3.61597266
