   70
C70 / DATE: 7/ 1/2024 / Origin: Program Fullerene / C70 from database
 C            1.19398290        0.07075305        4.37312087
 C            2.48707466       -0.22477273        3.80645678
 C            2.41871227       -1.56504335        3.23886472
 C            0.36587413       -1.10930403        4.18780597
 C            1.02435111       -1.94629620        3.21292003
 C           -0.96604763       -0.65086552        3.88263675
 C            0.44661700        1.19834672        3.85121153
 C           -0.95061181        0.80328600        3.85787242
 C            0.93457628        1.92513052        2.76673262
 C            2.99548190        0.63661053        2.76103523
 C            2.14681857        1.56701271        2.15544568
 C            3.14573696       -1.52818980        1.98906692
 C            3.78960039       -0.23041108        1.91519145
 C            2.54949336       -2.02481634        0.83602608
 C            0.40087722       -2.15407065        1.98373704
 C            1.17713533       -2.32876150        0.83324115
 C           -1.68539695       -1.29298697        2.89037546
 C           -0.98211306       -1.95080274        1.86215052
 C           -2.90844495       -0.71514257        2.60181142
 C           -1.85129255        1.45249208        3.01172329
 C           -2.97580918        0.73864456        2.59379345
 C            0.04020639        2.74140466        2.08351088
 C           -1.39338989        2.51591194        2.23303983
 C            0.29907495        3.07912261        0.69678358
 C            2.40523641        1.94783919        0.83231502
 C            1.38848261        2.51184180        0.05892811
 C            4.14919534        0.23508137        0.66405933
 C            3.56126631        1.48241431        0.20799477
 C            3.19429895       -1.77381196       -0.37538592
 C            4.06201494       -0.68220888       -0.45867255
 C            2.66668271       -2.31921323       -1.54103252
 C            0.54922925       -2.64597045       -0.36980081
 C            1.34056678       -2.90333812       -1.48378849
 C           -1.60294940       -2.19507445        0.62579672
 C           -0.82291474       -2.40826279       -0.51444367
 C           -3.67072449       -1.21174807        1.48630576
 C           -2.96801332       -1.96128645        0.47152135
 C           -3.68731516        1.13254259        1.38848277
 C           -4.29641421       -0.06972504        0.84437626
 C           -2.02408372        2.81128335        0.95369624
 C           -0.97317582        3.14294873        0.00299022
 C           -3.11872732        2.06524485        0.52324751
 C           -1.07389180        2.67220499       -1.30120317
 C            1.30190751        2.23072716       -1.30668622
 C            0.04905706        2.09247585       -1.90963248
 C            3.62615835        1.47402039       -1.24227734
 C            4.04885917        0.14330074       -1.65045362
 C            2.43155551        1.80427596       -1.99214500
 C            2.76788634       -1.57914009       -2.79348784
 C            3.22021099       -0.26833594       -2.76366051
 C            2.27656762        0.80999421       -3.03597648
 C            0.76494484       -2.80209194       -2.80506837
 C            1.58412051       -1.87590811       -3.57168384
 C           -1.39524823       -2.24091658       -1.78794037
 C           -0.60864081       -2.36519783       -2.92853710
 C           -3.46192146       -1.50358355       -0.81253533
 C           -4.23995921       -0.28954234       -0.58346079
 C           -2.61711341       -1.57806936       -1.91339580
 C           -3.38059617        1.98880673       -0.84735801
 C           -2.34877773        2.40593251       -1.78471543
 C           -4.02786294        0.80635223       -1.40372733
 C           -2.79621508       -0.68433901       -2.97043091
 C           -2.50777038        1.63265395       -2.99398377
 C           -3.46833575        0.57570924       -2.71972397
 C           -0.07661435        1.30835806       -3.06959167
 C            0.99165314        0.50402972       -3.47536723
 C            0.72486174       -0.77635315       -3.96504135
 C           -0.63145815       -1.28759219       -3.90181614
 C           -1.33785158        1.01318066       -3.57811368
 C           -1.67068822       -0.37676095       -3.83313000
