   70
C70 / DATE: 7/ 1/2024 / Origin: Program Fullerene / C70 from database
 C            1.33959898        0.09471077        4.71193390
 C            2.51530229        0.00256470        3.87206922
 C            2.52050927       -1.31868737        3.26737854
 C            0.50887265       -1.06652639        4.43731106
 C            1.22852589       -1.92540752        3.50676036
 C           -0.81016200       -0.58941946        4.05416001
 C            0.50204486        1.26913708        4.59735756
 C           -0.85812825        0.82968680        4.31552753
 C            0.82592251        2.27371368        3.60177717
 C            2.70635952        0.97344471        2.80474596
 C            1.80699371        2.02177741        2.63566462
 C            2.95710449       -1.17069357        1.89558049
 C            3.15194293        0.24486500        1.63574584
 C            2.34488674       -1.92842898        0.90541933
 C            0.53347600       -2.45227195        2.42182462
 C            1.20647786       -2.68556529        1.21680162
 C           -1.35951213       -1.08060929        2.87915874
 C           -0.84424214       -2.26981318        2.38374383
 C           -2.04531540       -0.22976703        1.99996287
 C           -1.39035737        1.70612036        3.28907698
 C           -0.45178263        2.80654487        3.17273636
 C           -1.92965498        1.15607144        2.12300925
 C           -0.47985437        3.55275828        2.01514532
 C            1.68166228        2.61733421        1.37729854
 C            0.74377827        3.63834927        1.24264517
 C            2.82502568        0.72133958        0.37238120
 C            2.15967944        1.94695025        0.23525477
 C            2.54808610       -1.53797407       -0.41257601
 C            2.79798832       -0.18835927       -0.68163708
 C            2.10566807       -2.38469541       -1.41878793
 C            0.51259411       -3.33190712        0.18471110
 C            1.04008630       -3.31797721       -1.10880323
 C           -1.56578241       -2.92121426        1.40512775
 C           -0.83501710       -3.63478240        0.37753929
 C           -2.56624012       -0.77473516        0.82518736
 C           -2.60178409       -2.16543263        0.73252196
 C           -2.60455284        0.00677228       -0.34086469
 C           -2.02773596        1.96064810        0.98412217
 C           -1.51722906        3.25993849        1.04884072
 C           -2.31666654        1.38068988       -0.26313877
 C            0.35234808        4.08442101       -0.07413127
 C           -1.09278188        3.91701410       -0.16402465
 C            1.86713229        2.42634776       -1.05481098
 C            0.93411879        3.44010942       -1.22856390
 C            2.69072473        0.30215786       -1.97379510
 C            2.15905695        1.63713910       -2.16496036
 C            1.89199032       -1.87530092       -2.76190752
 C            2.18161196       -0.54679808       -3.03654268
 C            0.16153320       -3.38997922       -2.27107142
 C            0.67569810       -2.47889961       -3.28270252
 C           -1.72928297       -3.74260609       -0.76100806
 C           -2.82074711       -2.80085393       -0.54487728
 C           -1.20932908       -3.51954583       -2.09526404
 C           -2.90600580       -0.58296411       -1.58193985
 C           -2.91821614       -1.96887632       -1.71657488
 C           -2.10899623       -2.58819928       -2.75486949
 C           -2.78350409        0.16534157       -2.74442656
 C           -2.17573450        2.14111966       -1.43741272
 C           -1.37420883        3.27227317       -1.41888103
 C           -0.14114620        3.24333490       -2.18478040
 C           -2.29138578        1.51869369       -2.66862928
 C            1.20810059        1.58504997       -3.26966999
 C            1.26898763        0.24545574       -3.84541796
 C           -0.01042446        2.26237754       -3.16351488
 C           -1.18090836        1.64452107       -3.60264121
 C           -0.20567211       -1.71865531       -4.04597455
 C           -1.63848226       -1.79320519       -3.79097315
 C           -2.17655753       -0.45105374       -3.91477133
 C            0.12319838       -0.33838513       -4.37243191
 C           -1.10968654        0.42081659       -4.37614453
