   70
C70 / DATE: 7/ 1/2024 / Origin: Program Fullerene / C70 from database
 C            1.47224472       -0.04076372        5.21456477
 C            0.61164394       -1.20981184        5.22781846
 C            1.23449873       -2.22431841        4.39875162
 C            2.59104014       -0.31675322        4.32767220
 C            2.50228039       -1.70291277        3.91523426
 C            2.61791790        0.71440935        3.30148268
 C            0.71840166        1.05267470        4.63201558
 C            1.52760493        1.63419277        3.58069453
 C           -0.64649614       -0.84572602        4.59733027
 C           -0.59728983        0.56471125        4.26700457
 C            0.25058389       -2.66643610        3.42317379
 C           -0.89976403       -1.78620369        3.52234028
 C            0.68676550       -3.02391978        2.15389199
 C            2.88129426       -2.02507061        2.62211728
 C            2.05149448       -2.94523629        1.86982220
 C            2.86898754        0.35407281        1.97226521
 C            3.24011531       -0.95853552        1.69328650
 C            2.36234854        1.16328296        0.94524675
 C            0.87614931        2.18726941        2.49344673
 C            1.58667410        2.26602615        1.30893525
 C           -1.11083296        0.97089037        3.04041001
 C           -0.51077977        2.05262648        2.40075010
 C           -1.46236306       -1.30857630        2.34332942
 C           -1.79118289        0.04676167        2.24866145
 C           -0.21833441       -2.95117553        1.09407097
 C           -1.27787355       -2.03936831        1.16771458
 C            0.20461491       -3.40423631       -0.14776667
 C            2.47338055       -2.81624934        0.49007866
 C            3.04936494       -1.48641605        0.35314495
 C            1.60877686       -3.25049724       -0.49452512
 C            2.31168315        0.68812844       -0.37838526
 C            2.58084127       -0.65202902       -0.65921243
 C            1.79226363        1.50450656       -1.38757728
 C            1.05265358        3.07590947        0.32611761
 C            1.33986551        2.77855347       -1.05660333
 C           -1.13538820        2.56470476        1.26417373
 C           -0.36771299        3.35463855        0.40973908
 C           -2.36286848        0.50684167        1.06702567
 C           -2.21295355        1.85572708        0.73211815
 C           -1.91834752       -1.59921021        0.00450197
 C           -2.65262630       -0.41684975        0.06391847
 C           -0.56763330       -3.07897334       -1.33261655
 C           -1.61593069       -2.16962165       -1.23887268
 C            1.63136188       -2.56515760       -1.76614780
 C            2.04526123       -1.23274932       -1.81173117
 C            0.38980146       -2.92782960       -2.41244619
 C            1.44869223        0.95874215       -2.62965758
 C            1.55686086       -0.42285726       -2.83907464
 C            0.81129274        1.77308032       -3.57265538
 C            0.28159222        3.39364172       -1.83869401
 C           -0.83684292        3.63332185       -0.93681851
 C            0.04472906        2.91673300       -3.11611112
 C           -2.84694916        2.34254181       -0.40786829
 C           -2.11436581        3.22871111       -1.29900300
 C           -3.37601567       -0.00391438       -1.04583992
 C           -3.60476055        1.41655533       -1.22813449
 C           -2.08526160       -1.57145073       -2.41520102
 C           -3.05776862       -0.57656844       -2.33973517
 C            0.01242459       -2.19436281       -3.51657240
 C            0.82092330       -1.04157669       -3.85607921
 C           -1.35999844       -1.73592870       -3.59680231
 C            0.06129604        1.18258681       -4.66245131
 C            0.01973275       -0.25416962       -4.77058479
 C           -1.36350148       -0.68052024       -4.59571985
 C           -1.32459281        2.73342668       -3.57662334
 C           -2.37508980        2.81052378       -2.66713579
 C           -3.35742035        1.73997279       -2.62224858
 C           -3.08754126        0.49878462       -3.32619922
 C           -1.30921609        1.65995930       -4.55893557
 C           -2.16975584        0.50146721       -4.36881977
