   70
C70 / DATE: 7/ 1/2024 / Origin: Program Fullerene / C70 from database
 C            1.31008646       -0.07977207        4.52161088
 C            2.49218055       -0.32017865        3.72841214
 C            2.47080663       -1.71272382        3.30991993
 C            0.48321720       -1.27742922        4.47331059
 C            1.19395278       -2.28109328        3.70323330
 C           -0.84596648       -0.87167476        4.04294772
 C            0.46156872        1.03843751        4.16870872
 C           -0.91168266        0.56467361        4.21720077
 C            0.83344760        1.90661965        3.14136164
 C            2.71299104        0.49270838        2.54632646
 C            1.83354468        1.52842366        2.23111791
 C            2.85989842       -1.75794805        1.91000899
 C            3.14383303       -0.39861309        1.48838856
 C            2.17584099       -2.59433493        1.03079395
 C            0.48786965       -3.02994766        2.77355113
 C            1.12326522       -3.37534467        1.51409953
 C           -1.39484023       -1.44903767        2.89896518
 C           -0.88927041       -2.66824253        2.46173174
 C           -2.17786620       -0.67292597        2.03632305
 C           -1.86977559        1.27635605        3.51654787
 C           -2.57326325        0.60813810        2.43173625
 C           -0.10242348        2.86131837        2.76085695
 C           -1.50481723        2.59634349        3.03809316
 C           -0.02510045        3.45772999        1.44353768
 C            1.79019857        1.98908918        0.90841867
 C            1.01794463        3.11143223        0.59273602
 C            2.86663149       -0.05436585        0.17654658
 C            2.37200480        1.21786339       -0.11158760
 C            2.24568894       -2.32352533       -0.33840908
 C            2.70486579       -1.07074718       -0.75870166
 C            1.51762632       -3.12473056       -1.21755867
 C            0.04982166       -3.75798563        0.61501574
 C           -1.15533863       -3.10999912        1.10577634
 C            0.29369874       -3.74612249       -0.74654967
 C           -2.34710190       -1.05344851        0.69719361
 C           -1.87629614       -2.29157101        0.24406734
 C           -2.84227122       -0.12060494       -0.21862751
 C           -2.86118765        1.60558169        1.41200819
 C           -2.25541603        2.84835416        1.82349889
 C           -1.37152517        3.50435579        0.89087519
 C           -2.76449274        1.23110496        0.08116318
 C           -1.51075631        3.24689073       -0.46599247
 C           -2.24529342        2.11824202       -0.87584103
 C            0.88832760        3.49817278       -0.73741085
 C           -0.45737766        3.67884164       -1.25645649
 C            2.26595875        1.61062630       -1.44807364
 C            1.65093246        2.81483575       -1.75992972
 C            2.66960679       -0.72565327       -2.10359128
 C            2.47352056        0.66929115       -2.45827360
 C            1.28328600       -2.68441144       -2.58406878
 C            1.91500226       -1.53849398       -3.04168679
 C           -0.76464049       -3.30727936       -1.63722667
 C           -1.82243605       -2.55338688       -1.12656500
 C           -0.12559571       -2.90205338       -2.87917436
 C           -3.05949187       -0.48811853       -1.53501790
 C           -2.57773247       -1.77487126       -1.99470672
 C           -2.22665238        1.71645876       -2.22290881
 C           -2.79822619        0.49263255       -2.57356660
 C           -0.44739764        3.35015625       -2.66004981
 C            0.90246995        2.93183081       -3.00139428
 C           -1.35623076        2.32912334       -3.12779663
 C            1.66514724        0.71063693       -3.66950672
 C            1.22220233       -0.64408181       -3.95594763
 C            0.79777370        1.77507327       -3.87182656
 C           -0.61893548        1.51637353       -4.08422697
 C           -0.79922745       -2.03741256       -3.73248594
 C           -2.14152562       -1.61932995       -3.37227521
 C           -2.29310830       -0.22087462       -3.73531487
 C           -0.10817611       -0.88309566       -4.28844695
 C           -1.05377218        0.22371372       -4.34488740
