   70
C70 / DATE: 7/ 1/2024 / Origin: Program Fullerene / C70 from database
 C            1.20819534        0.17871127        4.67492555
 C            2.45513261       -0.02794125        3.97009099
 C            2.49321171       -1.41841507        3.55049606
 C            0.38971558       -1.01081640        4.48275313
 C            1.15635393       -1.95394958        3.68653586
 C           -0.90955053       -0.58274344        3.99176182
 C            0.40203386        1.32562009        4.31828600
 C           -0.95773182        0.85621814        4.10919375
 C            0.76571872        2.11240830        3.15047632
 C            2.75195466        0.78362564        2.79955672
 C            1.82322919        1.71370124        2.33355498
 C            3.11063468       -1.45961899        2.24087787
 C            3.40599916       -0.08894353        1.84626098
 C            2.60179597       -2.32502164        1.27692369
 C            0.55985352       -2.52360816        2.56783969
 C            1.36244672       -2.93975895        1.49900683
 C           -1.41392812       -1.17363364        2.83819492
 C           -0.80832960       -2.33353092        2.36548853
 C           -2.26158158       -0.44797616        1.98934459
 C           -1.50660687        1.60889184        3.00306431
 C           -0.47817241        2.51598480        2.53150400
 C           -2.26939159        0.95597044        2.04149914
 C           -0.48645477        2.82815450        1.18297372
 C            1.77515913        2.00278604        0.96573050
 C            0.69760818        2.73806124        0.44969796
 C            3.35438019        0.23038745        0.49589577
 C            2.68875633        1.39223383        0.09861011
 C            3.04622333       -2.13838117       -0.02916862
 C            3.49649658       -0.81217023       -0.41668556
 C            2.30340315       -2.69897059       -1.14571095
 C            0.78291807       -3.69845350        0.48441780
 C            1.18944914       -3.47912293       -0.89323307
 C           -1.45406625       -3.06457502        1.38279704
 C           -0.65711941       -3.88075544        0.48707322
 C           -2.86693835       -1.10527047        0.90657679
 C           -2.48788463       -2.41378784        0.59881688
 C           -3.49264392       -0.35668280       -0.09045512
 C           -2.56026399        1.67083945        0.88258087
 C           -1.69070094        2.69953323        0.50371671
 C           -3.40112823        1.08843032       -0.05352800
 C           -1.77293843        3.26227455       -0.76136250
 C            0.66848995        3.09359326       -0.90386915
 C           -0.53043652        3.55288334       -1.45356606
 C            2.68027829        1.72727010       -1.25064879
 C            1.67669256        2.64786504       -1.75438570
 C            3.13564900       -0.60827984       -1.80784001
 C            2.23763959       -1.68496891       -2.18556601
 C            2.84911313        0.67456779       -2.24174030
 C            1.01621456       -1.37176584       -2.78039339
 C           -0.01214844       -3.25824454       -1.67847131
 C           -1.13881172       -3.66261847       -0.86660357
 C           -2.28228924       -2.77687704       -0.79661099
 C           -0.12879763       -2.10312111       -2.44614434
 C           -3.32835588       -0.76568220       -1.47640453
 C           -2.43416522       -1.79004491       -1.76283608
 C           -1.39582581       -1.55702526       -2.67515474
 C           -3.41913903        1.57844882       -1.42142890
 C           -2.71455719        2.73367427       -1.73086579
 C           -3.35833130        0.42260679       -2.30837507
 C           -0.77517193        3.40061695       -2.87814895
 C           -2.12522165        2.88614406       -3.04964034
 C            1.34964343        2.22534750       -3.11061911
 C            1.81321069        0.85596049       -3.24199833
 C            0.89008463       -0.16572821       -3.47233140
 C            0.12508614        2.57497112       -3.65968567
 C           -1.52408237       -0.53730753       -3.61400800
 C           -2.56981476        0.45949838       -3.45071681
 C           -2.05671548        1.73241909       -3.92528459
 C           -0.32656107        0.14572574       -4.06955596
 C           -0.66691502        1.54036647       -4.30348537
