   70
C70 / DATE: 7/ 1/2024 / Origin: Program Fullerene / C70 from database
 C            1.52317907        0.01450878        5.09571644
 C            0.73290631       -1.20016595        5.02901169
 C            1.63018527       -2.24436055        4.59367722
 C            2.68529799       -0.17977838        4.24405829
 C            2.79713418       -1.59570551        3.99922775
 C            2.55143177        0.71341115        3.10754635
 C            0.73281960        1.07135732        4.50391962
 C            1.51813769        1.67354687        3.44078227
 C           -0.45678946       -0.91657562        4.23308215
 C           -0.56160679        0.52294432        4.13500554
 C           -0.75152697       -1.69557306        3.11096856
 C            1.13430941       -3.19739516        3.62806016
 C           -0.13428362       -2.93359870        2.96336588
 C            2.89227191       -2.05618825        2.62916882
 C            2.13543959       -3.28268012        2.58269528
 C            2.59013760        0.21567604        1.80375657
 C            2.75104999       -1.15935479        1.56304576
 C            2.10363298        1.03354346        0.78098069
 C            0.80343313        2.23912124        2.39647386
 C            1.31883520        2.14651247        1.10233753
 C           -1.15394658        1.06868101        3.01056065
 C           -0.57841755        2.23158771        2.52337172
 C           -1.40622155       -1.11188556        2.01304636
 C           -1.78764988        0.23187058        2.08579889
 C           -1.49894126       -1.79987620        0.79019403
 C            0.00376151       -3.48186459        1.63814201
 C            1.43067554       -3.56441929        1.36238328
 C           -0.80044423       -3.00661262        0.61080212
 C            2.42849777       -1.67269573        0.29629717
 C            1.86494832       -2.95695586        0.19730182
 C            2.12810494        0.57553834       -0.52843226
 C            2.30176024       -0.78857217       -0.78300850
 C            1.71389552        1.42406056       -1.54974944
 C            0.62007725        2.81786423        0.08897855
 C            0.82226211        2.46344725       -1.25475430
 C           -1.29622482        2.92693488        1.58224517
 C           -0.55952991        3.46341338        0.46081577
 C           -2.40894426        0.84742734        0.99359989
 C           -2.42801220        2.24273897        0.99868391
 C           -2.06514018       -1.16063809       -0.33006864
 C           -2.52175320        0.16424448       -0.22737489
 C           -1.98682502       -1.77913520       -1.58869359
 C           -0.35259614       -3.31778380       -0.66481262
 C            1.07760713       -3.23523463       -0.90377967
 C           -1.01484149       -2.73932898       -1.80090208
 C            1.98468347       -1.29615833       -2.04808455
 C            1.27149010       -2.48060548       -2.11658233
 C           -0.00162916       -2.48788365       -2.81285455
 C            1.89689637        1.00159267       -2.85781898
 C            1.87019882       -0.42142560       -3.12124339
 C            1.18114618        1.65789937       -3.93009583
 C           -0.00562483        3.00434831       -2.26003413
 C            0.16443937        2.62469273       -3.58829161
 C           -1.55846159        3.76918942       -0.53353704
 C           -2.73498465        2.96738142       -0.21010207
 C           -1.24840996        3.52614735       -1.91858756
 C           -3.02360970        0.83045815       -1.36358923
 C           -3.07319438        2.22132521       -1.39417726
 C           -2.43504896        2.92276115       -2.49411611
 C           -2.44311868       -1.11789406       -2.71750976
 C           -3.08030100        0.16838989       -2.58334348
 C           -0.24930159       -1.49873366       -3.75520361
 C            0.80797252       -0.64749685       -4.09165933
 C            0.55887527        0.62501082       -4.74693655
 C           -1.56956684       -1.06197379       -3.88274670
 C           -1.02013598        2.31414550       -4.37815180
 C           -2.31313944        2.27391540       -3.71125752
 C           -2.81835646        0.91550861       -3.81042466
 C           -0.80559884        1.02896715       -5.01945239
 C           -1.88331697        0.14838673       -4.61772533
