   70
C70 / DATE: 7/ 1/2024 / Origin: Program Fullerene / C70 from database
 C            1.26634748        0.06432222        4.92343336
 C            2.51883960       -0.16648392        4.23716946
 C            2.52451779       -1.54225107        3.76172085
 C            0.43905821       -1.12118831        4.75368807
 C            1.21355780       -2.10947156        4.02117773
 C           -0.84666457       -0.69531269        4.21943848
 C            0.47272033        1.21253255        4.54004986
 C           -0.88291479        0.74682259        4.30021948
 C            0.86863686        1.99992410        3.38152015
 C            2.87547297        0.67571594        3.10737680
 C            1.97584994        1.63200779        2.62303141
 C            3.03272657       -1.52703668        2.39709203
 C            3.55270069       -0.19244496        2.16384505
 C            2.30943110       -2.16320258        1.38570080
 C            0.58795595       -2.82769210        3.01326711
 C            1.26717036       -3.00891369        1.73838248
 C           -1.34940734       -1.32249107        3.08051863
 C           -0.80422517       -2.54373351        2.70720559
 C           -2.09239073       -0.59398090        2.13986393
 C           -1.39317283        1.47697997        3.16477660
 C           -0.34991665        2.36710336        2.69474685
 C           -2.13466776        0.80873048        2.20195366
 C           -0.31111165        2.62675312        1.33228385
 C            2.03234446        1.99897378        1.27399838
 C            0.90029269        2.52961531        0.63686841
 C            3.67715667        0.23785632        0.85966399
 C            3.07724407        1.50891098        0.50136221
 C            2.41621028       -1.70277614        0.06644068
 C            3.32015669       -0.68347252       -0.20156093
 C            1.43732812       -2.02746485       -0.89127461
 C            0.24777698       -3.31197543        0.76165747
 C           -1.04660098       -3.04499424        1.37341692
 C            0.42985387       -2.94741471       -0.56539387
 C           -2.58741800       -1.24140012        0.99501978
 C           -2.02956038       -2.46107801        0.58691579
 C           -3.37634613       -0.51029172        0.10319569
 C           -2.41623678        1.51503475        1.03859599
 C           -1.49880119        2.48585405        0.62168114
 C           -3.28512763        0.93597626        0.12676011
 C           -1.53995897        2.98419231       -0.67059655
 C            0.90039473        2.74080057       -0.75444427
 C           -0.28008956        3.17939822       -1.36315452
 C            2.94841529        1.50039762       -0.93690519
 C            3.13578348        0.12570323       -1.37858303
 C            1.94797862        2.24591217       -1.54536756
 C            1.41479277       -1.36541606       -2.14093422
 C            2.32927026       -0.33037333       -2.40499335
 C            0.38764632       -1.64086921       -3.06494067
 C           -0.69368215       -3.03533917       -1.37204824
 C           -1.99148383       -2.77930820       -0.76732211
 C           -0.68662927       -2.43188674       -2.68067657
 C           -3.48832143       -0.92171068       -1.28778508
 C           -2.79199540       -2.03821614       -1.72022784
 C           -2.04403400       -1.98753360       -2.96597147
 C           -3.34121038        1.42382735       -1.23938272
 C           -2.50846698        2.46636393       -1.62053268
 C           -3.51882633        0.27637321       -2.11470362
 C           -0.51451291        2.93747670       -2.77673531
 C           -1.88286451        2.45386859       -2.93196481
 C            1.72515116        1.97024917       -2.89442670
 C            2.01142560        0.62363230       -3.36060333
 C            0.50853971        2.40980959       -3.54803743
 C            0.23742090       -0.86364255       -4.21454337
 C            1.07381619        0.29639141       -4.40198103
 C            0.20671322        1.44881667       -4.59643863
 C           -2.23150311       -0.92508724       -3.83876985
 C           -2.92708210        0.26718997       -3.37461552
 C           -2.17347371        1.42707154       -3.82615621
 C           -1.10228760       -0.49306201       -4.64219493
 C           -1.14971289        0.95692762       -4.74077256
