   70
C70 / DATE: 7/ 1/2024 / Origin: Program Fullerene / C70 from database
 C            1.27448539       -0.05349633        4.20212616
 C            2.47410085       -0.27698903        3.41570024
 C            2.41485390       -1.65253808        2.93727402
 C            0.42215555       -1.21968883        4.02679668
 C            1.02466739       -2.05277490        3.01272210
 C           -0.92079462       -0.75181745        3.79920611
 C            0.47052091        1.12802421        3.95094406
 C           -0.90974468        0.70190478        3.80966668
 C            0.96133438        2.11100827        3.11180130
 C            2.94767696        0.72467562        2.56604792
 C            2.23475700        1.91807214        2.42963735
 C            3.86234420        0.37706994        1.57449984
 C            3.13846487       -1.99383617        1.80944840
 C            4.09851646       -1.03179531        1.30993541
 C            2.41833079       -2.52119816        0.65999783
 C            0.31973443       -2.29300904        1.83363080
 C            1.02758647       -2.48055202        0.64280097
 C           -1.69981859       -1.37499743        2.83832909
 C           -1.06365344       -2.06563572        1.78799843
 C           -2.91903643       -0.76372439        2.59673079
 C           -1.77676338        1.36843337        2.93904366
 C           -2.94616360        0.68976481        2.58422646
 C            0.05582153        2.77255447        2.19042681
 C           -1.28008662        2.38186972        2.10364373
 C            2.13530366        2.54413954        1.11954740
 C            0.78887289        3.05423320        0.96466305
 C            3.80833750        1.05819233        0.28927579
 C            2.76567999        1.94991282        0.03823232
 C            4.19204727       -1.20949663       -0.12546533
 C            3.14841517       -2.13717324       -0.53347185
 C            4.21631625        0.10761034       -0.73447899
 C            2.44748392       -1.85841955       -1.70213218
 C            0.36099757       -2.38894956       -0.57622009
 C            1.07002927       -2.11280917       -1.75721243
 C           -1.74975253       -2.30531301        0.58827880
 C           -1.02741475       -2.49282548       -0.59382431
 C           -3.74488700       -1.24452838        1.51922643
 C           -3.12374309       -2.07749962        0.51636100
 C           -3.72105124        1.10304034        1.42862529
 C           -4.30911848       -0.08677604        0.84213300
 C           -1.98574058        2.76036834        0.96189120
 C           -3.21806887        2.08610635        0.59682130
 C            0.13658355        2.92320988       -0.25593548
 C           -1.24846052        3.04207313       -0.26131768
 C            2.14751166        1.96195599       -1.21464444
 C            0.78322291        2.28898598       -1.32423306
 C            3.68060111        0.23370572       -2.00377343
 C            3.00056686       -0.91713366       -2.56891320
 C            2.81545101        1.36389033       -2.27807158
 C            2.20944642       -0.41319686       -3.66751535
 C            2.08925299        1.02882863       -3.48208188
 C            0.37414030       -1.87080835       -2.94980920
 C            0.87274318       -0.92983189       -3.84935998
 C           -1.69347550       -2.54572315       -1.81433599
 C           -0.98421584       -2.16182462       -3.02034001
 C           -3.71154667       -1.68905664       -0.74936780
 C           -4.17404655       -0.31661635       -0.58489604
 C           -3.05090121       -2.03073436       -1.91508376
 C           -3.20995567        1.88562446       -0.84676027
 C           -2.01132557        2.51940377       -1.37571575
 C           -3.65385467        0.68532416       -1.40649013
 C            0.05041285        1.94948496       -2.47660865
 C            0.68246483        1.35116656       -3.56161137
 C            0.04489260        0.21201508       -4.19159097
 C           -1.34591512        1.92536263       -2.43593420
 C           -1.84153076       -1.24548208       -3.75624352
 C           -3.06753105       -1.07451946       -3.00232077
 C           -3.20303484        0.33494593       -2.67716920
 C           -1.32633957        0.07455106       -4.06983419
 C           -2.04815338        1.02326216       -3.23492733
