   70
C70 / DATE: 7/ 1/2024 / Origin: Program Fullerene / C70 from database
 C            1.20093993       -0.09277747        4.52213864
 C            2.50706271       -0.30960199        3.93945561
 C            2.46199338       -1.59454614        3.25620695
 C            0.38452566       -1.24965613        4.18298950
 C            1.07695661       -1.98701504        3.15354412
 C           -0.93711785       -0.77090372        3.88296583
 C            0.44773734        1.09438364        4.15723019
 C           -0.92820523        0.67795991        3.98832263
 C            0.98454701        2.01410085        3.26653137
 C            3.03790226        0.66440300        3.00171672
 C            2.30046897        1.79565687        2.67948759
 C            3.20670159       -1.45882647        2.03435647
 C            3.66989104       -0.08536646        1.93703225
 C            2.71112506       -2.03792800        0.87529234
 C            0.49454073       -2.09100138        1.88667786
 C            1.31941017       -2.20623537        0.75203898
 C           -1.62446479       -1.31811956        2.80942210
 C           -0.88208855       -1.84061764        1.73412650
 C           -2.84816051       -0.72106532        2.54811937
 C           -1.76911964        1.36973834        3.12457342
 C           -2.95012939        0.70735390        2.81239445
 C            0.12871419        2.59033783        2.24234043
 C           -1.20179561        2.19867956        2.14142668
 C            2.25107111        2.23799803        1.29552390
 C            0.90886355        2.72179697        1.02449071
 C            3.75911373        0.45201287        0.65835907
 C            2.91065525        1.51601612        0.30682035
 C            3.45427178       -1.76734713       -0.26343962
 C            4.09743123       -0.46260009       -0.33159719
 C            2.89160368       -2.03789355       -1.56348884
 C            0.72939145       -2.26467640       -0.51871813
 C            1.51703284       -2.20707402       -1.67941128
 C           -1.45028774       -1.90291842        0.45365223
 C           -0.66132802       -2.30412570       -0.62503158
 C           -3.51226619       -0.97478447        1.29332394
 C           -2.77562991       -1.49448333        0.23557592
 C           -3.81999934        1.27588506        1.81139628
 C           -4.37655341        0.16673591        1.05938963
 C           -1.84100058        2.34147337        0.90491132
 C           -3.22078852        2.17568406        0.85486819
 C            0.31352380        2.42306823       -0.19886982
 C           -1.07837878        2.31529892       -0.27593509
 C            2.45290661        1.62865021       -1.01064200
 C            1.10599481        1.95271520       -1.25040529
 C            4.07173325       -0.03421679       -1.70917163
 C            3.57543262       -1.15337733       -2.48804540
 C            3.24167527        1.10285348       -2.02809124
 C            2.81908117       -0.59385125       -3.58228935
 C            2.65715711        0.83334959       -3.32085907
 C            0.91436800       -2.00782084       -2.92674725
 C            1.49337880       -1.11573472       -3.83400574
 C           -1.24645810       -2.47292520       -1.87385896
 C           -0.44263398       -2.26773092       -3.06640740
 C           -3.24895358       -1.31664870       -1.06944732
 C           -2.56523457       -1.91534142       -2.11948925
 C           -4.54411802        0.62851139       -0.29751135
 C           -3.86553373        1.91618102       -0.41103433
 C           -4.03254105       -0.19837912       -1.36884946
 C           -1.67579620        2.04708966       -1.51549223
 C           -3.05397567        1.86244472       -1.60778273
 C           -3.54966308        0.73183933       -2.36822868
 C            0.50843049        1.68446076       -2.48988164
 C            1.26034753        1.14623021       -3.53243538
 C            0.71371981        0.02407217       -4.27013568
 C           -0.88303454        1.61724701       -2.58123465
 C           -1.20458055       -1.42139987       -3.96978278
 C           -2.51284234       -1.20421256       -3.38616567
 C           -2.75313447        0.22859476       -3.37740943
 C           -0.65884526       -0.11908522       -4.31166298
 C           -1.46504134        0.85746477       -3.60314306
