   70
C70 / DATE: 7/ 1/2024 / Origin: Program Fullerene / C70 from database
 C            1.13885398       -0.11947398        4.53307520
 C            2.33221763       -0.40965182        3.77083254
 C            2.17664922       -1.74143963        3.20929505
 C            0.28457747       -1.29534837        4.46786273
 C            0.79930998       -2.13788316        3.40784459
 C           -1.08108789       -0.83519619        4.38093555
 C            0.32970193        1.01830563        4.14636253
 C           -1.05606954        0.61939679        4.30208935
 C            0.67522210        1.76997284        3.02616332
 C            2.69449255        0.47441038        2.67961741
 C            1.90375591        1.57388524        2.37630323
 C            2.68217365       -1.69973149        1.85461502
 C            3.14970412       -0.35334313        1.58445603
 C            1.97198279       -2.33596441        0.85060205
 C            0.01719075       -2.40160512        2.28191980
 C            0.64929347       -2.73835725        1.08325952
 C           -1.90124058       -1.30090254        3.28230390
 C           -1.34760604       -2.08960842        2.26919243
 C           -2.01279311        1.01500112        3.27845699
 C           -2.74418623       -0.18252375        2.91015906
 C           -0.33474941        2.46820662        2.36459879
 C           -1.60483251        1.89371798        2.27569774
 C            0.03442490        3.42284788        1.42937695
 C            2.11390893        2.20581142        1.15306022
 C            1.38671694        3.36330809        0.91459268
 C            3.01857149        0.12729103        0.28313589
 C            2.61194148        1.45405020        0.07295378
 C            2.36091357       -2.07200222       -0.45476387
 C            2.86976557       -0.80173214       -0.74887398
 C            1.81294122       -2.86175261       -1.45627793
 C           -0.11948870       -3.17681216        0.00385401
 C            0.55145212       -3.51810080       -1.17294866
 C           -2.06166659       -2.22133174        1.07540856
 C           -1.49195710       -2.88869316       -0.01292029
 C           -3.36288858       -0.22557174        1.67636833
 C           -3.18120414       -1.41191537        0.86414998
 C           -2.27334769        1.89014307        1.04432330
 C           -3.22794001        0.91220272        0.78007872
 C           -0.82997674        3.63134681        0.28783765
 C           -1.76288475        2.64320106       -0.01565016
 C            1.37765641        3.94511073       -0.40734265
 C           -0.01070984        4.21502166       -0.75434646
 C            2.52462082        1.94381567       -1.24211248
 C            1.96138128        3.19405622       -1.49390265
 C            2.89849361       -0.34817870       -2.05969034
 C            2.66943863        1.06260086       -2.31477761
 C            1.77449056       -2.38276091       -2.82738060
 C            2.22065280       -1.09973652       -3.10148199
 C           -0.16697007       -3.64327830       -2.42373670
 C            0.51273223       -2.81442391       -3.40561473
 C           -2.21497084       -2.93005689       -1.20969760
 C           -1.56712625       -3.29948950       -2.45158424
 C           -3.53965585       -1.03131508       -0.48723674
 C           -3.34714760        0.40761766       -0.57567950
 C           -3.10130844       -1.82763769       -1.52678084
 C           -1.89323695        2.16160181       -1.33029648
 C           -2.50900108        0.93119053       -1.55452714
 C           -0.21497820        3.78625362       -2.11768826
 C            1.06918195        3.34299749       -2.63029243
 C           -1.16870999        2.72768696       -2.37618264
 C            1.76147125        1.16377790       -3.45175652
 C            1.31984077       -0.17831770       -3.77154451
 C            0.83048078        2.18812138       -3.47395632
 C           -0.58050870        1.84351160       -3.36551267
 C           -0.42706709       -1.80226158       -3.85813305
 C           -1.73839690       -2.18453106       -3.37500574
 C           -2.54765364       -1.18686396       -2.70406059
 C           -2.06528891        0.11508287       -2.60178602
 C           -0.04308590       -0.46506523       -3.80372929
 C           -0.95646701        0.50131240       -3.36351120
