   70
C70 / DATE: 7/ 1/2024 / Origin: Program Fullerene / C70 from database
 C            1.03083661       -0.02223111        4.62563668
 C            2.29521618       -0.37612995        4.02104172
 C            2.21491431       -1.77088112        3.61878159
 C            0.19001235       -1.21021602        4.61236055
 C            0.82603260       -2.17716143        3.74279037
 C           -1.15481994       -0.78804276        4.30736372
 C            0.25984167        1.05637136        4.03983857
 C           -1.12969299        0.65296566        4.09705779
 C            0.71156334        1.69022460        2.88454568
 C            2.74901464        0.37804832        2.87076433
 C            2.00784839        1.45874202        2.39728988
 C            2.86089967       -1.89729970        2.32385749
 C            3.26281680       -0.56563933        1.90011835
 C            2.29695795       -2.74991641        1.39003487
 C            0.16495344       -2.65511973        2.60836880
 C            0.94002970       -3.22890446        1.60661587
 C           -1.82487316       -1.37308676        3.16450233
 C           -1.15536467       -2.26609285        2.32278727
 C           -1.97901744        0.93979458        2.95357636
 C           -2.60077475       -0.31011495        2.56149655
 C           -0.22552786        2.32016441        2.06241151
 C           -1.51076326        1.78489246        1.94929210
 C            0.23404471        3.17648106        1.07510742
 C            2.35092559        1.97249623        1.14469968
 C            1.61661422        3.05090057        0.66040136
 C            3.18089690       -0.20823079        0.55883413
 C            3.04516662        1.14495625        0.25153253
 C            2.41915462       -2.42667408       -0.01898214
 C            2.81499904       -1.15553527       -0.40477182
 C            0.35907375       -3.48677272        0.30870580
 C            1.30288916       -3.04165591       -0.70640003
 C           -1.69553709       -2.48619959        1.04477222
 C           -0.98818393       -3.24687016        0.10093128
 C           -2.97302122       -0.45783393        1.24027461
 C           -2.78181258       -1.69613765        0.63786710
 C           -2.11976100        1.71766215        0.69076207
 C           -3.01134411        0.67438540        0.43289154
 C           -0.56675684        3.36627080       -0.11971752
 C           -1.64448388        2.51658195       -0.35741191
 C            1.69833496        3.42071885       -0.74084658
 C            0.34234767        3.69971271       -1.20140639
 C            3.20357674        1.52349051       -1.07731821
 C            2.59290069        2.74760259       -1.56070584
 C            2.49067078       -0.71961728       -1.68683587
 C            3.00724061        0.50545103       -2.09130698
 C            0.80222418       -2.45498449       -1.86780947
 C            1.35978114       -1.25200310       -2.32912232
 C           -1.41557203       -3.26870636       -1.22156845
 C           -0.49395762       -2.80128802       -2.24856009
 C           -3.39216809       -1.91900370       -0.59080096
 C           -2.73494212       -2.77954932       -1.54717886
 C           -3.59244778        0.56188597       -0.82040940
 C           -3.90761812       -0.76988105       -1.31757173
 C           -2.08009921        2.30081227       -1.67232613
 C           -3.04494067        1.32761977       -1.92138303
 C           -0.02925911        3.40635042       -2.50558176
 C           -1.25595276        2.66520345       -2.74109873
 C            2.27952118        2.55507148       -2.96525957
 C            2.48171509        1.14713594       -3.27497657
 C            0.96575906        2.92776815       -3.45081810
 C            0.66352952       -0.48882802       -3.27942096
 C           -0.98877578        1.67617961       -3.77532650
 C            1.25538108        0.63513970       -3.84463959
 C            0.40959975        1.77184547       -4.13428328
 C           -1.23608258       -1.93496552       -3.14472385
 C           -2.64318036       -2.06293344       -2.80853403
 C           -3.43479722       -0.85992832       -2.68884595
 C           -2.81014573        0.40268067       -3.01707045
 C           -0.70749416       -0.68682330       -3.45561855
 C           -1.55811667        0.41965218       -3.61868048
