   70
C70 / DATE: 7/ 1/2024 / Origin: Program Fullerene / C70 from database
 C            1.03936693        0.00000000        5.56754074
 C            0.31251873       -1.17661227        5.11565139
 C            1.21623569       -1.99250586        4.34505209
 C            2.33321670        0.00000000        4.90809872
 C            2.45648217       -1.24496927        4.17915031
 C            2.45648217        1.24496927        4.17915031
 C            0.31251873        1.17661227        5.11565139
 C            1.21623569        1.99250586        4.34505209
 C           -0.90084059       -0.72678609        4.47430287
 C           -0.90084059        0.72678609        4.47430287
 C           -1.36850953       -1.36667721        3.32784381
 C            0.79330003       -2.43447623        3.02593612
 C           -0.48517883       -2.13355058        2.54555579
 C            2.74892089       -1.21251543        2.75592748
 C            1.91956336       -2.23021865        2.14043641
 C            2.74892089        1.21251543        2.75592748
 C            2.92014918        0.00000000        2.08118190
 C            0.79330003        2.43447623        3.02593612
 C            1.91956336        2.23021865        2.14043641
 C           -1.36850953        1.36667721        3.32784381
 C           -0.48517883        2.13355058        2.54555579
 C           -2.42239430       -0.72831360        2.69303239
 C           -2.42239430        0.72831360        2.69303239
 C           -2.82431346       -1.15340950        1.37350658
 C           -0.70319399       -2.25385885        1.16105003
 C           -1.94160006       -1.90907763        0.61150953
 C            1.66608895       -2.11782869        0.78693404
 C            0.39725658       -2.43845038        0.31525627
 C            2.75839595       -0.00000000        0.69251110
 C            2.40728055       -1.19452566        0.06340701
 C            1.66608895        2.11782869        0.78693404
 C            2.40728055        1.19452566        0.06340701
 C           -0.70319399        2.25385885        1.16105003
 C            0.39725658        2.43845038        0.31525627
 C           -2.82431346        1.15340950        1.37350658
 C           -3.45872836        0.00000000        0.76705281
 C           -1.94160006        1.90907763        0.61150953
 C           -3.61569985        0.00000000       -0.60092141
 C           -2.11346206       -1.92676797       -0.77563283
 C           -3.13340895       -1.15152845       -1.33433829
 C            0.21832577       -2.44223141       -1.06642060
 C           -1.07288182       -2.37091158       -1.59151606
 C            2.24294023       -1.18691083       -1.31570059
 C            1.30562384       -2.06235131       -1.85807485
 C            2.24294023        1.18691083       -1.31570059
 C            2.50128017        0.00000000       -1.99140063
 C            0.21832577        2.44223141       -1.06642060
 C            1.30562384        2.06235131       -1.85807485
 C           -2.11346206        1.92676797       -0.77563283
 C           -3.13340895        1.15152845       -1.33433829
 C           -1.07288182        2.37091158       -1.59151606
 C           -3.03970299       -0.72961440       -2.72089553
 C           -3.03970299        0.72961440       -2.72089553
 C           -1.24617264       -2.36055665       -2.97663471
 C           -2.18189475       -1.41644452       -3.56412071
 C            1.22081423       -2.16897640       -3.24048266
 C           -0.07719328       -2.40698456       -3.83623188
 C            2.44277397       -0.00000000       -3.38173441
 C            1.90446451       -1.17342181       -4.04865562
 C            1.22081423        2.16897640       -3.24048266
 C            1.90446451        1.17342181       -4.04865562
 C           -1.24617264        2.36055665       -2.97663471
 C           -2.18189475        1.41644452       -3.56412071
 C           -0.07719328        2.40698456       -3.83623188
 C           -1.48335974       -0.69733734       -4.61673736
 C           -0.26449375       -1.43690631       -4.90516042
 C            0.98840785       -0.72551425       -5.08511443
 C            0.98840785        0.72551425       -5.08511443
 C           -1.48335974        0.69733734       -4.61673736
 C           -0.26449375        1.43690631       -4.90516042
