   70
C70 / DATE: 7/ 1/2024 / Origin: Program Fullerene / C70 from database
 C            1.07169954        0.00890586        4.62109511
 C            2.28406235       -0.37874329        3.93717479
 C            2.19789556       -1.80292760        3.66589072
 C            0.22822889       -1.17371024        4.73280909
 C            0.82681257       -2.21047061        3.91770510
 C           -1.12976446       -0.77228996        4.45279294
 C            0.26130495        1.06631952        4.05056907
 C           -1.11965096        0.65675939        4.19043221
 C            0.64238035        1.68216484        2.85838669
 C            2.61595312        0.27813109        2.68998645
 C            1.83303558        1.32663499        2.21570871
 C            2.75506592       -2.03727562        2.34599561
 C            3.03711537       -0.74140166        1.74754871
 C            2.17150519       -3.01314168        1.55821831
 C            0.10480821       -2.80167284        2.87762337
 C            0.83140387       -3.47580861        1.89463435
 C           -1.82953150       -1.40764782        3.35506096
 C           -1.23709114       -2.44861508        2.64309287
 C           -2.01459417        0.90562643        3.07829026
 C           -2.53220597       -0.36897604        2.61698518
 C           -0.33992875        2.33199685        2.10863007
 C           -1.64519079        1.82686868        2.11648081
 C            0.05265323        3.10059489        1.01095475
 C            1.98644160        1.69564077        0.88427133
 C            1.28490081        2.80125400        0.41630085
 C            2.77841999       -0.53104549        0.39322333
 C            2.47183527        0.75793651       -0.03452222
 C            2.21786913       -2.86289136        0.11861896
 C            2.47197916       -1.60912609       -0.44023170
 C            0.19171677       -3.89624302        0.66111774
 C            1.14213093       -3.67352758       -0.41877171
 C           -1.86046001       -2.82633751        1.45552057
 C           -1.15087383       -3.61494390        0.46649445
 C           -2.76339318       -0.55346772        1.25016884
 C           -2.67520047       -1.84680479        0.74841020
 C           -2.33516701        1.79086520        0.91624894
 C           -2.64636274        0.53995459        0.37672783
 C           -0.96882408        3.65663253        0.24124776
 C           -2.18006986        2.87948589        0.07872348
 C           -0.67011680        4.27703434       -1.03209060
 C            1.59143038        3.26650697       -0.86022967
 C            0.66409797        4.13199996       -1.56255170
 C            2.35295422        1.00868977       -1.39939849
 C            2.13818501        2.32113709       -1.81702314
 C            2.07634298       -1.36365969       -1.75941662
 C            2.10784620       -0.05958935       -2.26691645
 C            0.68217305       -3.38607622       -1.69238026
 C            1.35482406       -2.34281522       -2.44440102
 C           -1.62032990       -3.20459297       -0.84722012
 C           -2.49530550       -2.05631986       -0.67318852
 C           -0.74654678       -3.22171418       -1.92477723
 C           -2.51976822        0.33276281       -1.00810169
 C           -2.35646958       -0.96125535       -1.51766847
 C           -2.39744103        2.71595709       -1.34069917
 C           -1.60480313        3.73600726       -2.00800352
 C           -2.44368873        1.43203595       -1.87210666
 C            0.55073645        3.65013043       -2.92819709
 C            1.53140183        2.58925042       -3.11018671
 C           -0.85425612        3.37292421       -3.19384390
 C            1.61645341        0.18194855       -3.55295753
 C            1.21943685        1.52522435       -3.94168418
 C            0.43311023       -1.94355036       -3.48629206
 C           -0.89654343       -2.21642756       -2.96376125
 C           -1.77766197       -1.15150541       -2.77426577
 C            0.64794436       -0.73784842       -4.12893039
 C           -2.07571698        1.24227624       -3.20302459
 C           -1.18742377        2.19951905       -3.85556033
 C           -0.12483118        1.44117568       -4.48939677
 C           -1.70856879       -0.08444282       -3.66052232
 C           -0.51837453        0.04651369       -4.48481858
