   70
C70 / DATE: 7/ 1/2024 / Origin: Program Fullerene / C70 from database
 C            1.17031121        0.01324982        4.36654516
 C            2.44908331       -0.21830883        3.73512481
 C            2.44032071       -1.58216002        3.23417833
 C            0.34505005       -1.16415898        4.13805209
 C            1.06899839       -2.03930741        3.24550139
 C           -0.96585617       -0.70883121        3.73564040
 C            0.39768523        1.16626553        3.95458149
 C           -0.98466447        0.74285219        3.82941836
 C            0.90512070        2.04360634        3.00385129
 C            2.84686745        0.64351172        2.63687261
 C            1.99289995        1.65160216        2.20503510
 C            3.13569989       -1.58101519        1.96661371
 C            3.48090743       -0.20288157        1.64645016
 C            2.65535427       -2.37841679        0.93397787
 C            0.49249354       -2.40332687        2.03289223
 C            1.32658246       -2.82506525        0.99314545
 C           -1.59578832       -1.30589684        2.65321985
 C           -0.85599228       -2.10762439        1.76966783
 C           -2.74506586       -0.68199222        2.19615988
 C           -1.83451727        1.45980460        2.98476251
 C           -2.84740945        0.76536718        2.32153269
 C            0.02678263        3.00770075        2.52962202
 C           -1.39136013        2.67944153        2.46303424
 C            0.37125567        3.75288871        1.33892659
 C            2.08960612        2.08388621        0.87856871
 C            1.41061864        3.22679795        0.48034530
 C            3.46480671        0.16963791        0.30475456
 C            2.66454784        1.25442225       -0.09259066
 C            3.24712439       -2.17729957       -0.30849009
 C            3.73854282       -0.84324533       -0.60787182
 C            2.62884565       -2.70713127       -1.50958141
 C            0.75179558       -3.43441931       -0.11494542
 C            1.38497827       -3.30967051       -1.41796937
 C           -1.43092482       -2.53169268        0.56242205
 C           -0.68331703       -3.32286872       -0.30873597
 C           -3.31010987       -1.06234644        0.92027259
 C           -2.64417078       -1.98715429        0.12474465
 C           -3.35726959        1.27097757        1.05796255
 C           -3.86956802        0.13740270        0.31350918
 C           -1.88576463        3.13483229        1.17081670
 C           -0.83532449        3.90202811        0.54165288
 C           -2.65510220        2.27308838        0.39904686
 C            0.93110305        3.31525552       -0.88241962
 C           -0.49547743        3.60105037       -0.82868732
 C            2.36820716        1.46933206       -1.45268788
 C            1.38705076        2.39612106       -1.81816007
 C            3.55196600       -0.60338295       -2.01746954
 C            2.87717546       -1.76258608       -2.58406842
 C            2.81814784        0.57339745       -2.42037894
 C            1.75722955       -1.27514023       -3.37043922
 C            1.91028044        0.16445967       -3.47634690
 C            0.34867067       -2.95661853       -2.37505978
 C           -0.92471966       -3.24140366       -1.73993554
 C            0.48820916       -1.81382578       -3.16517700
 C           -3.01151772       -2.09297080       -1.21627110
 C           -2.05547590       -2.58550178       -2.18998637
 C           -3.93952649        0.22037718       -1.06659988
 C           -3.72752556       -0.99103079       -1.83672812
 C           -2.45093122        2.18440113       -0.98729809
 C           -1.35747023        2.82338818       -1.59407927
 C           -3.23630374        1.30364366       -1.73654415
 C            0.57579651        2.13499736       -2.92247000
 C            0.78715994        0.93529745       -3.71576992
 C           -0.85875816        2.33813611       -2.79912294
 C           -0.64187338       -1.06366594       -3.50371010
 C           -1.91033106       -1.55985913       -3.20875022
 C           -3.01885085       -0.63223100       -3.05236455
 C           -2.74156443        0.79125698       -3.00473711
 C           -0.50104651        0.27871991       -3.86151455
 C           -1.52369770        1.24383237       -3.48194076
