   70
C70 / DATE: 7/ 1/2024 / Origin: Program Fullerene / C70 from database
 C            1.57699692       -0.04870144        5.05656646
 C            0.74515584       -1.22454813        5.22274537
 C            1.26158418       -2.25223551        4.34012024
 C            2.55093726       -0.32919862        4.01215773
 C            2.30675671       -1.66391181        3.51646076
 C            2.50361547        0.76418387        3.06761988
 C            0.72772187        1.02103718        4.56942554
 C            1.42628748        1.64788167        3.47149611
 C           -0.59243263       -0.89613974        4.75621808
 C           -0.58657316        0.47708097        4.29543992
 C            0.12482995       -2.84838930        3.66706958
 C           -0.99293050       -1.92640824        3.82079344
 C            0.34303528       -3.39053557        2.41032886
 C            2.25671634       -1.87588223        2.13984682
 C            1.53230679       -2.97282503        1.68205766
 C            2.62632802        0.49665843        1.70508303
 C            2.54096865       -0.82671405        1.24983496
 C            2.27412260        1.52304285        0.82286354
 C            0.67757593        2.19738817        2.44745031
 C            1.35837116        2.47750548        1.27567624
 C           -1.16718317        0.77395142        3.06458583
 C           -0.67628265        1.85673046        2.33486445
 C           -1.70624185       -1.56105429        2.68261837
 C           -1.90804969       -0.20129174        2.39444877
 C           -0.74828862       -3.37612598        1.45355846
 C           -1.80501315       -2.49379294        1.65160670
 C            1.23902783       -3.09369186        0.26944897
 C           -0.15431809       -3.46960622        0.13069158
 C            2.43941035       -1.04631474       -0.12759239
 C            1.74808907       -2.16134242       -0.61413534
 C            2.43706251        1.31729946       -0.54985392
 C            2.68175399        0.01546933       -0.99916345
 C            2.02299614        2.31154891       -1.44778696
 C            0.69786303        3.27470023        0.36373017
 C            1.13232008        3.28528590       -1.01278005
 C           -1.35912401        2.25619119        1.18249242
 C           -0.74964150        3.21697959        0.37272848
 C           -2.56285901        0.15125447        1.21194446
 C           -2.32376291        1.40402696        0.63217894
 C           -2.62452182       -2.20423239        0.57225618
 C           -3.14782341       -0.85987681        0.45262280
 C           -0.86806069       -2.97876905       -0.95853640
 C           -2.19824688       -2.61104043       -0.75689999
 C            1.18588369       -2.10251690       -1.88508277
 C           -0.16578081       -2.43888886       -2.04220259
 C            2.68586837       -0.25682888       -2.36370609
 C            1.83663045       -1.33074667       -2.83982914
 C            2.18544665        2.13083682       -2.81818552
 C            2.59600479        0.83502105       -3.30891430
 C            1.16007305        2.63524839       -3.71947485
 C           -0.02825145        3.61088506       -1.82547065
 C           -1.20679848        3.43651620       -0.98835546
 C           -0.05173982        3.20257126       -3.15205146
 C           -2.90351814        1.71658466       -0.60040628
 C           -2.29030884        2.71479639       -1.46083094
 C           -3.45109304       -0.63871796       -0.95123308
 C           -2.86014121       -1.73426304       -1.70811313
 C           -3.40278557        0.65191348       -1.45278802
 C           -0.88635093       -1.94890005       -3.13071058
 C           -2.24562404       -1.48069352       -2.92597644
 C            1.11792554       -0.85084813       -4.00560200
 C            1.67445685        0.44123288       -4.36448440
 C            0.77605573        1.55322861       -4.61020881
 C           -0.25139718       -1.05997453       -4.08698362
 C           -1.18044786        2.42735837       -3.64594927
 C           -2.27844639        2.19653327       -2.82125703
 C           -2.90931099        0.88641673       -2.80167077
 C           -2.35481013       -0.16222983       -3.52880803
 C           -0.65541390        1.34982181       -4.47098535
 C           -1.15660607        0.06005539       -4.32300206
