   70
C70 / DATE: 7/ 1/2024 / Origin: Program Fullerene / C70 from database
 C            1.60834907       -0.03510780        4.43117430
 C            0.80432171       -1.23750964        4.32724898
 C            1.35942035       -2.06642463        3.26974151
 C            2.64524395       -0.11281153        3.42022085
 C            2.52285706       -1.38142645        2.73441469
 C            2.57124421        1.08843947        2.62206461
 C            0.75491777        1.09425681        4.09958511
 C            1.35020721        1.78923362        2.97934107
 C           -0.58141322       -0.82943211        4.22424645
 C           -0.59650525        0.60211164        3.95548297
 C           -1.44281584       -1.64151904        3.50336008
 C            0.48951591       -2.69913136        2.38307462
 C           -0.88246601       -2.68427203        2.65341369
 C            0.93417362       -2.99458649        1.09044273
 C            2.72521158       -1.41004901        1.36110557
 C            2.12901865       -2.43033573        0.62910988
 C            2.87675069        1.00325958        1.27465132
 C            3.13247674       -0.24622238        0.69623038
 C            2.40213171        2.01305265        0.45752352
 C            0.53164506        2.24330592        1.94608845
 C            1.12855076        2.53524569        0.71991322
 C           -1.38010298        1.07623487        2.90749392
 C           -0.84538290        1.99496241        1.98571420
 C           -2.52695697       -1.02233444        2.76227389
 C           -2.52765295        0.35727849        2.57420143
 C           -1.83764741       -2.93298401        1.58378505
 C           -2.83318907       -1.87516388        1.62601772
 C            0.04912850       -3.57721086        0.18476052
 C           -1.37573456       -3.37631657        0.35780091
 C            0.31573868       -3.49467104       -1.23732250
 C            2.52351653       -2.60572282       -0.69232316
 C            1.59363604       -3.17180215       -1.65759055
 C            3.39477230       -0.30847767       -0.68034808
 C            3.24763825       -1.52793773       -1.34460806
 C            2.95011428        2.10240379       -0.80825446
 C            3.43374855        0.87898847       -1.42264209
 C            2.27809986        2.88820913       -1.81524640
 C            0.34016979        3.03782696       -0.31799271
 C            0.92062936        3.32165471       -1.55545941
 C           -1.65046243        2.45794536        0.93991429
 C           -1.05360407        2.98711584       -0.21656013
 C           -3.38206448        0.87487192        1.61240036
 C           -2.99791579        2.09527302        0.93796293
 C           -3.26468109       -1.26678493        0.45068634
 C           -3.88101846       -0.02745776        0.58555327
 C           -1.87412455       -2.74574352       -0.85337383
 C           -0.82160857       -2.82031009       -1.85113290
 C           -2.63659049       -1.58841222       -0.76067071
 C           -0.60372780       -1.74095038       -2.70771519
 C            1.74057418       -2.43520147       -2.89714524
 C            2.87066577       -1.53735407       -2.74691597
 C            0.61339066       -1.65571482       -3.37941266
 C            3.00482893        0.88801842       -2.81673664
 C            2.26646436        2.11442859       -3.04636862
 C            2.52415046       -0.28296991       -3.37992757
 C            1.11993852       -0.35480466       -3.77207032
 C            0.16364343        3.06007632       -2.76600958
 C            0.88552723        2.02044099       -3.47839822
 C            0.30245362        0.76010451       -3.61840161
 C           -1.81199372        3.21191982       -1.37035304
 C           -1.20826848        2.94771906       -2.65980343
 C           -3.76774079        2.13373250       -0.28910984
 C           -4.14700808        0.76364169       -0.59679459
 C           -3.15545027        2.68554420       -1.47096255
 C           -2.54987349       -0.63916600       -1.78314956
 C           -1.42247733       -0.60991388       -2.61694978
 C           -1.03031335        0.58471461       -3.24319764
 C           -1.82569192        1.72235793       -3.13104143
 C           -3.47458230        0.39770263       -1.82349681
 C           -3.11580076        1.63416145       -2.47951356
