   70
C70 / DATE: 7/ 1/2024 / Origin: Program Fullerene / C70 from database
 C            1.24525306        0.01753485        4.96321303
 C            2.52718590       -0.32762577        4.39149047
 C            2.35350013       -1.58748806        3.67345588
 C            0.39553266       -1.14922678        4.81618884
 C            0.94912887       -1.92905732        3.72680420
 C           -0.95528451       -0.65971634        4.68707372
 C            0.50748199        1.13451932        4.39583133
 C           -0.88675931        0.79137766        4.54499400
 C            0.94645565        1.71295625        3.20266761
 C            3.13208829        0.61258479        3.47227574
 C            2.30282775        1.65526144        2.88527438
 C            2.97540736       -1.43970147        2.37702505
 C            3.66349430       -0.16640029        2.37487360
 C            2.26819600       -1.78391136        1.22995656
 C            0.23357609       -2.04229313        2.53224890
 C            0.92139766       -2.15280693        1.31345535
 C           -1.75402028       -1.13370543        3.57899156
 C           -1.15213795       -1.84021690        2.53297260
 C           -1.80882468        1.15316235        3.48984643
 C           -2.61679335       -0.02291146        3.24267221
 C            0.02716603        2.07034539        2.20485107
 C           -1.35240818        1.87239389        2.39001661
 C            0.50041452        2.53931723        0.97198092
 C            2.71679336        1.79231607        1.49888705
 C            3.54538954        0.64391037        1.18322803
 C            1.78485955        2.20120153        0.54584037
 C            2.73170561       -1.28211679        0.02158065
 C            3.27567186        0.00673223       -0.01099998
 C            2.18070115       -1.77456718       -1.15403135
 C            0.19864063       -2.32933544        0.12530363
 C            0.85939444       -2.24293931       -1.11582845
 C           -1.85430117       -1.93792999        1.33334785
 C           -1.19767160       -2.36149061        0.17764042
 C           -3.29936264       -0.09379768        2.04569174
 C           -3.06804657       -1.25665078        1.21520428
 C           -2.21083266        1.97787139        1.29404876
 C           -3.23823979        1.04545717        1.14526242
 C           -0.40131496        3.03155245        0.03959658
 C           -1.80830339        2.71247948        0.18868835
 C           -0.07462543        2.93720016       -1.37290133
 C            1.99298602        1.84044216       -0.79720360
 C            2.90738329        0.81721797       -1.06995263
 C            1.04963999        2.21410787       -1.76573872
 C            2.66551649       -1.21222363       -2.32774835
 C            2.91105994        0.21510683       -2.31389821
 C            2.03810796       -1.53807652       -3.58289076
 C            0.14180598       -2.42785018       -2.31209089
 C            0.74309780       -2.17210006       -3.54582109
 C           -1.93112092       -2.47359537       -0.99912961
 C           -1.24339869       -2.53097713       -2.27282411
 C           -3.56565144       -0.91189097       -0.09989002
 C           -3.56094746        0.54117000       -0.18289653
 C           -3.10787066       -1.63738916       -1.18028180
 C           -2.32263994        2.36295461       -1.12670647
 C           -1.32310927        2.76965277       -2.09669480
 C           -3.00683273        1.16052173       -1.29999345
 C           -1.29850526        2.14572607       -3.33082722
 C            1.09563175        1.66225944       -3.05264057
 C            2.12674043        0.78734392       -3.38110563
 C            1.89620044       -0.29508363       -4.32477323
 C           -0.01502098        1.77486788       -3.89432800
 C           -0.04643016       -1.56732554       -4.60848052
 C            0.63810052       -0.35546049       -5.03596827
 C           -0.28530495        0.74986695       -4.89106746
 C           -2.04578723       -1.77922998       -3.23010348
 C           -2.95594813       -0.96122731       -2.45161072
 C           -2.83290208        0.42917414       -2.47974098
 C           -2.20026928        1.03030189       -3.56612135
 C           -1.43196973       -1.22759771       -4.34375545
 C           -1.59589761        0.19502846       -4.59443516
