   70
C70 / DATE: 7/ 1/2024 / Origin: Program Fullerene / C70 from database
 C            1.26404023        0.02594242        4.29378981
 C            2.55907142       -0.37668018        3.80390072
 C            2.51929888       -1.81388250        3.56809287
 C            0.44830527       -1.17144294        4.41604342
 C            1.13908626       -2.23922229        3.71572813
 C           -0.89923928       -0.82737250        4.00391810
 C            0.50086597        0.98714187        3.52626682
 C           -0.88536653        0.56206184        3.57887278
 C            0.99795550        1.49567550        2.32138504
 C            3.06400525        0.23810283        2.59504631
 C            2.27570567        1.13806702        1.86876928
 C            3.20817702       -2.06890187        2.31645241
 C            3.77487795       -0.80290191        1.87974421
 C            2.61692395       -2.90934938        1.38157095
 C            0.49584928       -2.88575757        2.65983202
 C            1.23276837       -3.32553308        1.55811511
 C           -1.61204065       -1.74117463        3.24748730
 C           -0.89264498       -2.80395140        2.55480153
 C           -2.63704824       -1.24859745        2.34494699
 C           -1.71895252        0.97259893        2.54856682
 C           -2.70322322        0.11225514        2.05013021
 C            0.08813792        2.08117015        1.43580212
 C           -1.27238661        2.00889694        1.74028074
 C            0.49199433        2.43514731        0.14388116
 C            2.64541730        1.42464838        0.55249871
 C            1.80201989        2.18246776       -0.26369756
 C            4.03298527       -0.59901780        0.53598754
 C            3.67204857        0.68368231       -0.03515351
 C            2.83166841       -2.66739175       -0.03669144
 C            3.63712609       -1.61037082       -0.43592250
 C            0.60775623       -3.36221194        0.24261985
 C            1.57330734       -2.89247585       -0.73048938
 C           -1.51901021       -2.97514740        1.25367422
 C           -2.75006015       -2.20534842        1.26199881
 C           -0.72076449       -2.98904496        0.11307986
 C           -3.26894392       -1.76870853        0.05697450
 C           -3.44580110        0.52335881        0.93857456
 C           -3.82328310       -0.42830704       -0.01392076
 C           -2.19288263        2.61762572        0.90848683
 C           -3.38857126        1.86726181        0.57173253
 C           -0.43238093        2.99817910       -0.74844543
 C           -1.72516885        3.26514582       -0.29843776
 C           -0.15133158        3.04696738       -2.12086400
 C            2.15631485        2.38799745       -1.59623114
 C            1.13785975        2.76951745       -2.55776723
 C            3.66685421        0.48727647       -1.46676906
 C            3.31456758       -0.90993592       -1.66846318
 C            3.03960273        1.43454784       -2.25284361
 C            1.17043528       -2.00427115       -1.72462786
 C            2.13575798       -1.21300229       -2.35135735
 C           -1.13621628       -2.30111678       -1.02897247
 C           -2.47951371       -1.96054409       -1.14829229
 C           -0.19091872       -1.70451758       -1.87488681
 C           -3.84769941       -0.07646678       -1.42401586
 C           -2.87910879       -0.93661262       -2.09371732
 C           -3.79780617        2.27188409       -0.76214074
 C           -2.83506238        3.25471142       -1.23405127
 C           -3.94241566        1.25815541       -1.79000435
 C           -1.18233610        2.85505424       -3.04307386
 C           -2.56328234        2.97086109       -2.62331088
 C           -3.21758447        1.71402629       -2.96138625
 C           -0.60798352       -0.84086332       -2.89785262
 C           -1.92668626       -0.37537951       -2.93529242
 C           -1.11070867        1.70949574       -3.93322543
 C           -2.20699424        0.84626764       -3.54512330
 C            1.28698434        1.90389483       -3.71693391
 C            2.34402821        0.95980290       -3.43104251
 C            1.75407762       -0.36749464       -3.38514295
 C            0.13179534        1.14230342       -4.14943189
 C            0.34574670       -0.22919645       -3.70947338
