   70
C70 / DATE: 7/ 1/2024 / Origin: Program Fullerene / C70 from database
 C            1.47185415        0.20553169        5.06568806
 C            0.67272704       -0.97893521        4.81066840
 C            1.51259898       -1.92920520        4.12076129
 C            2.67610939        0.10264655        4.25747910
 C            2.73599065       -1.24131754        3.73212353
 C            2.67279568        1.21106248        3.32248022
 C            0.72359548        1.35494574        4.58871944
 C            1.59089727        2.10374325        3.70404556
 C           -0.55689912       -0.55965729        4.16626928
 C           -0.54789149        0.88881466        4.06174132
 C           -1.05693513       -1.28193530        3.09084924
 C            0.98382239       -2.57113903        2.93357542
 C           -0.34185322       -2.36868223        2.56036148
 C            2.89440144       -1.42007251        2.30217929
 C            1.98834814       -2.47221597        1.89680549
 C            2.90610884        0.98802476        1.96386239
 C            3.02813090       -0.32053514        1.46294282
 C            2.63105923        2.03136438        1.07612599
 C            0.99174156        2.85535327        2.70725736
 C            1.66675690        2.97345496        1.42725249
 C           -1.04694301        1.48065485        2.89818959
 C           -0.41667603        2.62553189        2.41174967
 C           -1.99291962       -0.64846686        2.28265329
 C           -1.84347995        0.71871859        2.03288335
 C           -2.69350931       -1.43492499        1.38504371
 C           -0.72267328       -2.85045172        1.30573219
 C           -2.03886936       -2.63523961        0.90833494
 C            1.54321545       -2.49320470        0.58177287
 C            0.27285022       -3.00658244        0.33263916
 C            2.88163781       -0.53688689        0.09401481
 C            2.10680344       -1.61579683       -0.35229076
 C            2.92828683        1.86374518       -0.27036341
 C            3.14762991        0.51812911       -0.76132134
 C            2.11541393        2.54952923       -1.26132764
 C            0.65562844        3.34772114        0.45238592
 C           -0.63389044        3.02997836        1.03620977
 C            0.86879480        3.04732899       -0.88894326
 C           -2.22585596        1.24313300        0.78915550
 C           -1.54676425        2.34262727        0.25718287
 C           -3.35717547       -0.81450174        0.25819684
 C           -3.10072625        0.52263575       -0.03155284
 C           -2.42825038       -2.83760391       -0.47587278
 C           -3.38546307       -1.79688051       -0.81585537
 C           -0.07224553       -3.26129637       -0.98797225
 C           -1.46523976       -3.21634447       -1.39821211
 C            1.66334751       -1.67173842       -1.68175252
 C            0.72024035       -2.63929735       -2.03314651
 C            2.68843998        0.46465262       -2.13469955
 C            2.24421417        1.80328196       -2.49874813
 C            1.96623684       -0.63935312       -2.57743113
 C            1.25602389        1.93672411       -3.46049247
 C           -0.23503080        2.79642108       -1.71054953
 C           -1.46894197        2.49162252       -1.12274693
 C           -0.01604875        2.51580978       -3.05968610
 C           -3.38511835        1.00020460       -1.31120025
 C           -2.51878147        2.00985224       -1.89169778
 C           -3.49293128       -1.35820088       -2.12821918
 C           -3.72611983        0.05427431       -2.36120284
 C           -1.51529737       -2.69159330       -2.75389461
 C           -0.14833171       -2.42922510       -3.17763353
 C           -2.53688453       -1.82235954       -3.12438482
 C            1.27262811       -0.53366774       -3.78429325
 C            0.96613275        0.78947813       -4.29868540
 C            0.11955069       -1.37911492       -4.04071814
 C           -1.06000676        1.89139121       -3.85558997
 C           -2.30940822        1.68212802       -3.29147577
 C           -3.00958914        0.43760074       -3.56507399
 C           -2.25503245       -0.71658425       -4.02700866
 C           -0.44681518        0.82421025       -4.63066137
 C           -0.96541472       -0.52931556       -4.51262846
