   70
C70 / DATE: 7/ 1/2024 / Origin: Program Fullerene / C70 from database
 C            1.32767473       -0.14381068        4.29769562
 C            2.57483991       -0.40487377        3.61771992
 C            2.48239308       -1.71180519        2.98841027
 C            0.47017485       -1.30614354        4.11935281
 C            1.14785236       -2.22932897        3.22818772
 C           -0.84939397       -0.82813225        3.74605903
 C            0.56000611        1.02762182        3.91714112
 C           -0.83218176        0.61797705        3.87677984
 C            1.04243854        1.89804663        2.93525649
 C            3.01475389        0.53154468        2.60838704
 C            2.35006169        1.74092355        2.43400709
 C            2.93617061       -1.58286249        1.61153048
 C            3.38986303       -0.22041439        1.42202531
 C            2.19070351       -2.18392300        0.60883060
 C            0.44415429       -2.75078409        2.15037124
 C            1.14000383       -3.02055942        0.97307057
 C           -1.48892149       -1.40962938        2.65224002
 C           -0.93689509       -2.55784254        2.08592208
 C           -2.43588777       -0.67280847        1.93164526
 C           -1.72069493        1.36130733        3.12252187
 C           -2.64825954        0.66931879        2.24512411
 C            0.13557544        2.77097838        2.31177401
 C           -1.23272403        2.52509656        2.40260581
 C            0.56836609        3.64551627        1.32126314
 C            2.75878309        2.49554520        1.34288856
 C            1.95186883        3.61168769        0.91232267
 C            3.23264895        0.39184259        0.18097643
 C            3.21880304        1.78494192        0.15756503
 C            2.21040145       -1.64096590       -0.67550330
 C            2.62770335       -0.31416536       -0.86749482
 C            1.58469212       -2.34048855       -1.71161588
 C            0.50697322       -3.75919167       -0.01395152
 C            0.75682656       -3.42362260       -1.40493571
 C           -1.65190540       -3.22671329        1.10215210
 C           -0.91326314       -4.01459942        0.13234318
 C           -2.98808996       -1.20028086        0.75903132
 C           -2.69223662       -2.50798404        0.38907510
 C           -3.51997133       -0.34378863       -0.20327166
 C           -3.01699704        1.59848068        1.19293706
 C           -2.05590334        2.68774802        1.21387290
 C           -3.44022976        1.09566131       -0.02295611
 C           -0.24849060        3.81223453        0.12621373
 C           -1.45588388        3.11921144        0.03160661
 C            1.99374350        3.65843481       -0.53814065
 C            2.70551100        2.48022178       -1.00586236
 C            0.64371157        3.89041601       -1.01885720
 C            2.30495855        0.35595754       -2.05342428
 C            2.16338921        1.74475966       -2.05044800
 C            1.50549911       -1.76996379       -2.97720783
 C            1.83027427       -0.36654850       -3.14376071
 C            0.34412179       -2.05339679       -3.80236798
 C           -0.48997300       -3.61143318       -2.13730433
 C           -1.53841708       -3.83742731       -1.16507557
 C           -2.58102485       -2.83899375       -1.02588708
 C           -0.76129537       -2.77983810       -3.21084646
 C           -3.29471984       -0.62712615       -1.61206668
 C           -2.68678058       -1.82466921       -1.97663392
 C           -1.89773680       -1.86637681       -3.12931809
 C           -2.91049585        1.66601944       -1.24828229
 C           -1.86670066        2.58627564       -1.19743358
 C           -2.89017538        0.61438371       -2.25515124
 C            0.26328113        3.29326729       -2.20856640
 C            1.16243807        2.33112904       -2.82266257
 C           -1.07791455        2.75403646       -2.33194136
 C            0.81574487        0.22877771       -4.00259854
 C           -0.16851091       -0.79074773       -4.29750025
 C           -1.51669782       -0.62286147       -3.78476725
 C           -1.88154870        0.59467905       -3.21365269
 C            0.36550638        1.50369240       -3.70581212
 C           -1.03199099        1.69636633       -3.33360769
