   70
C70 / DATE: 7/ 1/2024 / Origin: Program Fullerene / C70 from database
 C            1.00496515       -0.04162863        4.63661800
 C            2.30265937       -0.37955165        4.10056968
 C            2.20152771       -1.71556481        3.52864011
 C            0.17008421       -1.22282109        4.49200897
 C            0.79884901       -2.05755051        3.48805617
 C           -1.17317246       -0.75805675        4.24978908
 C            0.27691436        1.05928074        4.03557536
 C           -1.11767470        0.69226727        4.11301946
 C            0.75971713        1.63721930        2.86059848
 C            2.86844352        0.47242816        3.07487810
 C            2.12110528        1.52137112        2.54740574
 C            2.93443371       -1.70477386        2.28547775
 C            3.56869881       -0.40310023        2.15636314
 C            2.35744712       -2.25643974        1.15121428
 C            0.17838367       -2.22642220        2.24651311
 C            0.95958357       -2.39201181        1.09062887
 C           -1.87480739       -1.25551782        3.08576525
 C           -1.20433363       -2.02186254        2.12935767
 C           -1.98538008        1.04684171        3.01178455
 C           -2.68904477       -0.15598452        2.61985257
 C           -0.14077315        2.16434411        1.91709102
 C           -1.51323451        1.86973112        1.99836623
 C            0.34741646        2.88259304        0.81745615
 C            2.60887497        2.12260659        1.39746800
 C            1.70769579        2.85822819        0.53474986
 C            3.85379189        0.05583410        0.87262938
 C            3.53864553        1.38168350        0.55372867
 C            3.07188120       -2.08194440       -0.02522600
 C            3.91021551       -0.89740726       -0.14229602
 C            2.42034199       -2.28888551       -1.29816288
 C            0.32385019       -2.55470279       -0.14620926
 C            1.04157804       -2.40611980       -1.33742069
 C           -1.81478411       -2.15728698        0.88083271
 C           -1.06696742       -2.63705576       -0.19580037
 C           -3.15954850       -0.22519638        1.32228087
 C           -2.98002411       -1.42039535        0.63699457
 C           -2.29980159        1.96728202        0.85208631
 C           -3.22278360        0.95039846        0.57857921
 C           -0.51965507        3.25129500       -0.20834617
 C           -1.90782817        2.84162908       -0.15057629
 C           -0.07498418        3.11463293       -1.58808223
 C            2.14035924        2.66222645       -0.84138190
 C            3.29288398        1.77966791       -0.82820531
 C            1.17556639        2.55332125       -1.84129205
 C            3.89518699       -0.47893323       -1.52975010
 C            3.05842010       -1.41582617       -2.26043003
 C            3.45446624        0.86320214       -1.85232215
 C            1.33587326        1.62280751       -2.87975737
 C            2.20772027       -0.65284319       -3.14856936
 C            2.43404849        0.76052026       -2.88019478
 C            0.36979977       -2.06474320       -2.51242914
 C            0.89955687       -1.07564874       -3.35271948
 C           -1.68528316       -2.81194850       -1.43269362
 C           -0.96531169       -2.42841696       -2.63407792
 C           -3.66584441       -1.58725096       -0.55838388
 C           -3.06606082       -2.39840710       -1.59608849
 C           -3.86193145        0.89999283       -0.65801260
 C           -4.23201265       -0.40453265       -1.18708646
 C           -2.37555448        2.64617019       -1.51253655
 C           -1.22470095        2.75258747       -2.39662991
 C           -3.35671012        1.69687861       -1.76190015
 C            0.23926993        1.25266484       -3.65987870
 C            0.03796169       -0.15902694       -3.94286489
 C           -1.06382316        1.85089215       -3.43591903
 C           -1.85649970       -1.62001838       -3.44966249
 C           -3.17747150       -1.67486514       -2.85328838
 C           -3.88601634       -0.43461741       -2.59753250
 C           -3.24451140        0.82773978       -2.92340785
 C           -1.38756130       -0.42167964       -3.97171848
 C           -2.07412679        0.83070079       -3.67552580
