   70
C70 / DATE: 7/ 1/2024 / Origin: Program Fullerene / C70 from database
 C            1.56239702        0.11661846        4.69198994
 C            0.78612678       -1.10018648        4.53613238
 C            1.46109946       -1.93902353        3.55994908
 C            2.68357880        0.04145729        3.77281199
 C            2.73764435       -1.30904815        3.25378675
 C            2.56963102        1.13394228        2.82194199
 C            0.72394166        1.22503214        4.27565241
 C            1.37181579        1.88386418        3.16251992
 C           -0.58968011       -0.71779564        4.28607645
 C           -0.62008444        0.72333545        4.07593491
 C           -1.34979833       -1.52121594        3.45013355
 C            0.71436105       -2.52042410        2.53080893
 C           -0.67872768       -2.49918635        2.60271623
 C            1.33515231       -2.82674122        1.31537942
 C            3.26788685       -1.48832507        1.98954018
 C            2.67773618       -2.49633665        1.13864618
 C            2.85348161        0.88369222        1.47542782
 C            3.47106648       -0.31943744        1.14164464
 C            2.16160382        1.59817524        0.48942803
 C            0.58584221        2.34967847        2.12429620
 C            1.18628744        2.51317434        0.88833816
 C           -1.36888185        1.22957764        3.01557055
 C           -0.80418449        2.20405469        2.17917903
 C           -2.39577211       -0.90501049        2.65462820
 C           -2.45188825        0.48224830        2.55395126
 C           -1.45742065       -2.63566373        1.38382093
 C           -2.56286583       -1.69699359        1.44691812
 C            0.56070111       -3.13278807        0.19065281
 C           -0.79906267       -2.81367552        0.18053190
 C            1.20481175       -3.39626155       -1.01643161
 C            3.16383831       -2.21372577       -0.19593481
 C            3.43817369       -0.78591176       -0.23334417
 C            2.49796742       -2.78151539       -1.26582950
 C            2.24536745        1.21514566       -0.85841123
 C            2.82205330       -0.01179556       -1.20997126
 C            1.62481119        1.99457245       -1.84099606
 C            0.50819175        3.25593036       -0.05848018
 C            0.79046254        3.04372086       -1.46177063
 C           -1.57270757        2.74355535        1.14184930
 C           -0.92721622        3.41491364        0.09840981
 C           -3.25572200        1.02108349        1.55946607
 C           -2.87734565        2.28950031        0.96933667
 C           -2.99037328       -1.04937413        0.29063216
 C           -3.66221462        0.15525532        0.46515519
 C           -1.40140567       -2.34861128       -0.98867250
 C           -2.33802226       -1.31290254       -0.92406162
 C            0.44531690       -3.31993490       -2.25211119
 C           -0.87118149       -2.71574015       -2.21712177
 C            2.36111981       -2.00471072       -2.48235815
 C            2.48752043       -0.61631091       -2.42459160
 C            1.24558057       -2.57629438       -3.21017007
 C            1.57202582        1.53287702       -3.15320199
 C            1.91531040        0.15215792       -3.43320053
 C            0.42575378        1.87196966       -3.97941211
 C           -0.43763814        3.30108577       -2.20073875
 C           -1.51398738        3.45875512       -1.23466772
 C           -0.67185298        2.61297307       -3.38347030
 C           -3.49955871        2.34436018       -0.34319305
 C           -3.93393004        0.99529486       -0.67709271
 C           -2.73969147        2.85109990       -1.46943699
 C           -2.55363420       -0.49882232       -2.05054622
 C           -1.87259944        1.79704318       -3.51153932
 C           -3.34000645        0.64638210       -1.94685220
 C           -2.86346078        1.87903810       -2.54471370
 C           -0.96035252       -1.78487387       -3.32504941
 C            0.36518988       -1.67703537       -3.92570826
 C            0.84726444       -0.41758266       -4.24898809
 C           -0.11658224        0.63171707       -4.50446660
 C           -1.74171606       -0.64099841       -3.18029079
 C           -1.45154784        0.48097157       -3.96043206
