   70
C70 / DATE: 7/ 1/2024 / Origin: Program Fullerene / C70 from database
 C            1.29337446       -0.13009047        4.23100682
 C            2.38280661       -0.33226396        3.29831113
 C            2.16029176       -1.60457535        2.62400629
 C            0.45222663       -1.31271101        4.17957074
 C            0.88422622       -2.12019788        3.05204438
 C           -0.92657600       -0.87606688        4.21136648
 C            0.44305991        1.03084205        4.06681135
 C           -0.92784735        0.55790140        3.94351479
 C            0.87712455        2.06296385        3.25034660
 C            2.85907218        0.74090455        2.54688981
 C            2.15431766        1.94965399        2.55148545
 C            3.66579391        0.43875414        1.45282948
 C            2.52915115       -1.70524683        1.29449611
 C            3.60006166       -0.90995591        0.91750421
 C            1.56108932       -2.05388836        0.33580935
 C           -0.05675767       -2.49106940        2.09997575
 C            0.24954371       -2.36678100        0.73646569
 C           -1.85904448       -1.66142618        3.55632890
 C           -1.38571314       -2.55792276        2.50457014
 C           -3.04437212       -1.00524383        3.05049841
 C           -1.76027895        1.06966214        2.94123164
 C           -2.92983675        0.37981354        2.63118802
 C           -0.06688661        2.67147206        2.33282856
 C           -1.25594117        2.00792485        2.03511015
 C            2.04613144        2.72693192        1.32228342
 C            0.70476254        3.28431347        1.26772607
 C            3.68662699        1.33438693        0.30993370
 C            2.65889740        2.25693666        0.16253522
 C            3.98283213       -0.85365243       -0.46763347
 C            4.11676658        0.55212167       -0.82708008
 C            1.86913415       -1.96617355       -1.03089776
 C            3.10689515       -1.46364159       -1.43962459
 C            0.85586077       -2.08855199       -1.98263562
 C           -0.75689606       -2.54226190       -0.22965260
 C           -0.43500266       -2.45084242       -1.59345122
 C           -2.42882005       -2.66176134        1.51120278
 C           -3.50645594       -1.77236366        1.91446458
 C           -2.09807123       -2.70563068        0.16394860
 C           -3.47621676        0.47416393        1.28795726
 C           -4.01163808       -0.83307472        0.93277745
 C           -1.81360003        2.12237808        0.75524679
 C           -2.78720653        1.21851728        0.33377094
 C            0.10834741        3.48031200        0.03724201
 C           -1.23572605        2.97269777       -0.18159021
 C            2.02706682        2.42322692       -1.08057694
 C            0.87387064        3.20442836       -1.16202759
 C            3.43925773        0.73153658       -2.08960287
 C            3.16478673       -0.60180965       -2.60148891
 C            2.46054428        1.71524803       -2.21333245
 C            1.08288490       -1.64605929       -3.29331836
 C            2.18844648       -0.74439937       -3.56743529
 C           -0.03530194       -1.19583804       -4.10354369
 C           -1.45025457       -2.40993310       -2.55154502
 C           -1.31077472       -1.51242354       -3.67871860
 C           -3.11362315       -2.36056212       -0.72115007
 C           -3.95527586       -1.22225139       -0.39272345
 C           -2.82313600       -2.27178916       -2.12814885
 C           -2.89382128        0.88643238       -1.02334902
 C           -2.23880465       -0.42255027       -3.42384967
 C           -3.65241543       -0.22052933       -1.39214540
 C           -3.27756066       -0.96025091       -2.57552917
 C           -1.35793225        2.64796315       -1.59162752
 C           -0.08553722        2.95968567       -2.22104127
 C           -2.05038163        1.49735365       -1.96150396
 C           -1.72455078        0.84565054       -3.16228584
 C            1.66252624        1.68669645       -3.35767040
 C            1.62085336        0.46275738       -4.14120148
 C            0.23410946        0.18473746       -4.46621046
 C            0.31383167        2.22896818       -3.32220769
 C           -0.58431480        1.22645323       -3.86847955
