   70
C70 / DATE: 7/ 1/2024 / Origin: Program Fullerene / C70 from database
 C            1.03744518       -0.05812537        4.81405488
 C            2.34274867       -0.41582068        4.31201189
 C            2.26549922       -1.80493287        3.88560641
 C            0.19582079       -1.23775999        4.68162041
 C            0.85826591       -2.11003457        3.73483058
 C           -1.13242788       -0.77382520        4.36974263
 C            0.32518165        1.02992510        4.17589950
 C           -1.07294474        0.67756326        4.24752129
 C            0.80105130        1.56968148        2.98294248
 C            2.88141862        0.32940562        3.19269608
 C            2.07060339        1.22167503        2.49457308
 C            3.12106054       -1.93944772        2.73379673
 C            3.65678284       -0.61857232        2.42836379
 C            2.54695624       -2.44278503        1.50556976
 C            0.31949602       -2.27307485        2.45020779
 C            1.16219350       -2.58120454        1.37249412
 C           -1.76576921       -1.26090397        3.16430216
 C           -1.03175776       -1.97993232        2.21631811
 C           -1.92951743        1.04524959        3.13543890
 C           -2.58915570       -0.16904948        2.69925755
 C           -0.09141251        2.24913212        2.14771656
 C           -1.45135765        1.90933072        2.15040945
 C            0.42679932        2.96872275        1.08081838
 C            2.41668553        1.56166688        1.18295674
 C            1.73900939        2.60906024        0.57608705
 C            3.66621925       -0.48825965        0.98317093
 C            3.26683445       -1.77388327        0.44693281
 C            3.13007622        0.65372354        0.38823009
 C            2.69952523       -1.77942764       -0.80853393
 C            0.64358153       -2.63714831        0.07475427
 C            1.53409132       -2.51328604       -0.99586039
 C           -1.54354409       -2.03764527        0.91596724
 C           -0.72593597       -2.44969585       -0.14206950
 C           -3.02085658       -0.21171812        1.39164532
 C           -2.72712863       -1.34540953        0.64309172
 C           -2.18264873        1.98497687        0.95757693
 C           -3.14378333        0.99362334        0.71650743
 C           -0.42149448        3.27487671       -0.05466142
 C           -1.72192834        2.79261606       -0.09027769
 C            1.70095583        2.69320644       -0.87101789
 C            0.39365030        3.20213818       -1.25804124
 C            2.87831440        0.59795963       -0.98901761
 C            2.89310119       -0.66080753       -1.60541998
 C            2.28853232        1.69350370       -1.63280953
 C            2.59530642       -0.78944010       -2.95408028
 C            1.06380718       -2.64658251       -2.29383444
 C            1.72857217       -1.88780918       -3.34605203
 C           -1.23738146       -2.48056620       -1.44975890
 C           -0.36265501       -2.57327698       -2.53050077
 C           -3.30455858       -1.44944624       -0.61365007
 C           -2.51437540       -1.98360042       -1.70289515
 C           -3.86048548        0.97976247       -0.47104012
 C           -4.04862825       -0.30458523       -1.12400844
 C           -2.36924167        2.77418209       -1.32084194
 C           -3.55008724        1.95394957       -1.49167816
 C           -0.18367454        2.77482151       -2.45458874
 C           -1.57274737        2.66369016       -2.53386678
 C            1.91755410        1.59937783       -2.96964349
 C            2.19273429        0.38014578       -3.70049205
 C            0.59910923        2.06849455       -3.36921044
 C            0.71135691       -1.35852013       -4.23638092
 C           -0.57834602       -1.70398549       -3.67925725
 C            1.00571532        0.03509134       -4.46826027
 C           -0.01599613        1.01246401       -4.15907272
 C           -2.71032079       -1.11972493       -2.85925460
 C           -3.72523062       -0.14268760       -2.52998202
 C           -3.43355153        1.25166806       -2.76084304
 C           -2.15202365        1.59784660       -3.33752896
 C           -1.59487869       -0.75486104       -3.60877410
 C           -1.31021032        0.60830496       -3.83990822
