   70
C70 / DATE: 7/ 1/2024 / Origin: Program Fullerene / C70 from database
 C            1.42314755        0.01002871        4.71108346
 C            0.60815205       -1.16770454        4.46922846
 C            1.29671268       -1.99995395        3.51396212
 C            2.56545765       -0.05277091        3.81617593
 C            2.53537463       -1.32737332        3.14797599
 C            2.55351660        1.13000754        2.99534097
 C            0.63546114        1.17439878        4.34284093
 C            1.35036966        1.88621386        3.31639878
 C           -0.71977111       -0.72208336        4.13550688
 C           -0.70074076        0.73011641        4.04015437
 C           -1.44488290       -1.41150553        3.17422158
 C            0.56963044       -2.62877053        2.50348052
 C           -0.76187324       -2.23657774        2.25518065
 C            1.31980505       -3.18675967        1.46872625
 C            2.93882564       -1.40872828        1.82230076
 C            2.62331172       -2.60351400        1.19352368
 C            2.92271793        1.03411564        1.65675105
 C            3.03840059       -0.23141274        1.04739743
 C            2.61281891        2.13527277        0.87074514
 C            0.64313905        2.45675163        2.26399723
 C            1.41642050        2.89392014        1.20072132
 C           -1.39480396        1.31686773        2.98392883
 C           -0.69163343        2.07295360        2.02405584
 C           -2.61063801       -0.77903135        2.76689094
 C           -2.56375089        0.66688614        2.60737371
 C           -3.35959212       -1.32494536        1.66428821
 C           -1.33769066       -2.50999251        0.99967564
 C           -2.66604596       -2.20012614        0.75002854
 C            0.69591949       -3.44745432        0.18834891
 C           -0.53128451       -2.86612887       -0.07477073
 C            2.89745365       -2.75708630       -0.21080253
 C            1.73481657       -3.38870305       -0.81643050
 C            3.12106560       -0.32146423       -0.35883794
 C            3.19426511       -1.57048620       -0.97722250
 C            2.69407833        2.04227113       -0.56735375
 C            2.91804340        0.81110226       -1.15853348
 C            0.78229381        3.28573759       -0.03275331
 C            1.67637365        2.92292229       -1.11989908
 C           -1.27363104        2.32727775        0.76325737
 C           -0.57964961        3.08583707       -0.19124098
 C           -3.19104109        0.98658548        1.34703857
 C           -3.87743219       -0.20532558        0.89952414
 C           -2.48756639        1.72235288        0.40868964
 C           -3.05122705       -1.81451928       -0.59512789
 C           -3.77397442       -0.55309135       -0.49886314
 C           -0.84774429       -2.42559804       -1.36909532
 C           -2.14768479       -1.97813564       -1.64729367
 C            1.46165988       -2.68785835       -2.05137183
 C            2.55762953       -1.75968996       -2.26572361
 C            0.16643786       -2.26049612       -2.32682465
 C            2.60271822        0.66832717       -2.50874575
 C            2.32522844       -0.64931657       -3.05568177
 C            1.12616961        2.64189735       -2.36562923
 C            1.67641450        1.60966876       -3.12959320
 C           -1.09098045        3.21420707       -1.48052051
 C           -0.17998731        3.06315002       -2.60801142
 C           -2.85101436        1.61889531       -0.93670653
 C           -3.45089988        0.43939355       -1.41231315
 C           -2.32933468        2.54804665       -1.82814155
 C           -2.38338342       -1.23991044       -2.80813116
 C           -3.14560163       -0.00831937       -2.69038865
 C           -0.01052845       -1.35224726       -3.36798854
 C            1.06284858       -0.55568168       -3.76763440
 C            0.84438144        0.85140319       -4.05612939
 C           -1.29665201       -0.98718466       -3.73342677
 C           -0.92898552        2.49675529       -3.71425879
 C           -2.28377302        2.24802471       -3.24897868
 C           -2.66624369        0.92491049       -3.68576705
 C           -0.44006203        1.28700963       -4.34723511
 C           -1.52095459        0.31663860       -4.34138730
