   70
C70 / DATE: 7/ 1/2024 / Origin: Program Fullerene / C70 from database
 C            1.68375041       -0.19831525        4.87681395
 C            0.84388530       -1.37694527        4.97918247
 C            1.29784884       -2.33007459        3.98425183
 C            2.63836447       -0.42288042        3.80409603
 C            2.39000032       -1.72967470        3.23887806
 C            2.57402550        0.71481129        2.91741799
 C            0.84037993        0.91560774        4.47849408
 C            1.47112170        1.55811165        3.34803020
 C           -0.50840611       -0.99185731        4.61772686
 C           -0.50894044        0.42670056        4.30281690
 C            0.13573505       -2.77545752        3.23529399
 C           -0.97922087       -1.91633373        3.59764651
 C            0.30580480       -3.07515545        1.89170625
 C            2.37058449       -1.86746025        1.85482903
 C            1.56509895       -2.86731499        1.32451636
 C            2.72320128        0.51282397        1.55097544
 C            2.72153751       -0.78668985        1.03044815
 C            2.31674015        1.54209601        0.72050218
 C            0.66733550        2.10674351        2.35529903
 C            1.26646807        2.36284885        1.13538172
 C           -1.21684701        0.83511930        3.17864714
 C           -0.70734933        1.85598283        2.36163475
 C           -1.78253202       -1.41087123        2.57759745
 C           -2.12670975       -0.06091486        2.62876148
 C           -0.81197925       -3.01423790        1.06287346
 C           -1.79710918       -2.06191022        1.33759541
 C           -0.69734343       -3.53681859       -0.21834492
 C            1.75542089       -3.21059709       -0.00225467
 C            0.63946014       -3.79809557       -0.71760592
 C            2.65977747       -0.95767125       -0.36510937
 C            2.37442918       -2.22574916       -0.87370615
 C            2.58006081        1.43823127       -0.63366487
 C            2.55171561        0.16202574       -1.20842475
 C            2.31434970        2.55982506       -1.40686531
 C            0.53986467        3.04526113        0.17418534
 C            1.22840966        3.42071920       -0.97246499
 C           -1.47778309        2.27043818        1.26212991
 C           -0.85032037        2.85509920        0.14109252
 C           -3.02092336        0.42606676        1.69646111
 C           -2.76282930        1.74070542        1.14357317
 C           -2.55998327       -1.51719037        0.29712997
 C           -3.38002948       -0.43098356        0.58517337
 C           -1.46517054       -2.94634804       -1.29957085
 C           -2.26635261       -1.83960566       -1.03505065
 C            0.70475175       -3.34348984       -2.09029740
 C            1.76235469       -2.35053957       -2.18374116
 C           -0.63591121       -2.96628179       -2.49549364
 C            2.12381641       -0.00564598       -2.53883687
 C            1.52845249       -1.20439975       -2.92826969
 C            2.22991439        2.42067408       -2.83974085
 C            1.98243690        1.10159249       -3.37518314
 C            0.48509313        3.82306177       -2.13801028
 C            1.17641613        3.30561110       -3.30687120
 C           -1.56805750        3.04514309       -1.06002613
 C           -0.89881678        3.42627274       -2.21868875
 C           -3.45290322        1.79777038       -0.12336537
 C           -3.82016062        0.43558932       -0.48531724
 C           -2.77237031        2.38310393       -1.25070539
 C           -2.58130202       -0.95294664       -2.07639325
 C           -3.33013646        0.18756965       -1.82243913
 C           -2.88077357        1.45903561       -2.36680205
 C           -0.76668597       -1.93898736       -3.41385817
 C            0.41453756       -1.16985357       -3.76712710
 C           -1.85374129       -0.99068999       -3.26079130
 C            0.81156839        1.18844641       -4.23662466
 C            0.23214192        2.50259471       -4.06002573
 C           -1.06196531        2.60400000       -3.41132199
 C           -1.88208533        1.47685538       -3.33977953
 C           -0.04523226        0.10224910       -4.29157939
 C           -1.43688290        0.26319988       -3.87681027
