   70
C70 / DATE: 7/ 1/2024 / Origin: Program Fullerene / C70 from database
 C            1.30490517       -0.11761900        4.51026217
 C            2.56005252       -0.28343465        3.80373584
 C            2.51637066       -1.56742363        3.12387828
 C            0.46108679       -1.26057689        4.19085460
 C            1.16715867       -2.07996981        3.22416989
 C           -0.85456474       -0.75649714        3.84145120
 C            0.51994185        1.08301348        4.28622872
 C           -0.86329853        0.66667385        4.12839867
 C            1.02651642        2.10212714        3.48354327
 C            2.96507255        0.71667728        2.83089508
 C            2.24593270        1.89772120        2.71192102
 C            3.07664922       -1.38774365        1.80119362
 C            3.38354870        0.01785109        1.62861493
 C            2.49561353       -2.04530939        0.72592198
 C            0.51248195       -2.44716145        2.05417041
 C            1.25647943       -2.67705446        0.89220960
 C           -1.46797699       -1.21771072        2.67830005
 C           -0.86297709       -2.24567327        1.95399602
 C           -2.47884941       -0.45207463        2.08573850
 C           -1.74414600        1.47412177        3.42667557
 C           -2.71098667        0.84357046        2.54535138
 C            0.11776045        2.89595068        2.67129950
 C           -1.24688107        2.65862592        2.73797054
 C            2.04014786        2.47151314        1.39408342
 C            0.73597257        3.10527875        1.37109563
 C            3.15182250        0.57606547        0.37402883
 C            2.45955292        1.78892599        0.26115270
 C            2.85761200       -1.62343066       -0.54831070
 C            3.19008130       -0.27580580       -0.73286829
 C            2.45354548       -2.40432874       -1.62295503
 C            0.62000631       -3.22612545       -0.22602552
 C            1.30806684       -3.27600269       -1.43797893
 C           -1.53743865       -2.79556044        0.87719312
 C           -0.77038432       -3.35309793       -0.22461419
 C           -3.06146555       -0.87003577        0.88365904
 C           -2.67084881       -2.08097022        0.31922118
 C           -3.72655433        0.05305472        0.07267349
 C           -3.13258231        1.86088994        1.60674185
 C           -2.04907352        2.82950171        1.53994079
 C           -3.73999336        1.46455611        0.42790205
 C           -0.03730647        3.01864694        0.21250731
 C           -1.43159694        3.07469791        0.31310160
 C            1.88704384        2.12770508       -0.96190831
 C            0.56978967        2.61988236       -0.98931461
 C            3.10665091        0.29854703       -1.99706707
 C            2.46439652        1.59341470       -2.10671223
 C            2.38232184       -1.83627765       -2.95727903
 C            2.70617265       -0.50125634       -3.14220570
 C            0.55992098       -3.29521035       -2.68317637
 C            1.19916252       -2.37631190       -3.60791903
 C           -1.52824514       -3.12104324       -1.44758517
 C           -2.59219186       -2.18944903       -1.12876850
 C           -0.85546126       -2.98559235       -2.64967866
 C           -3.58123382       -0.04291826       -1.37388114
 C           -2.77363556       -1.04515658       -1.89937427
 C           -3.44682225        2.21902827       -0.77581656
 C           -2.20423256        2.97081326       -0.83617335
 C           -3.46863103        1.29739351       -1.89778139
 C           -0.18185313        2.59375404       -2.17603443
 C           -1.56728431        2.65656477       -2.09721957
 C           -2.33878674        1.60270396       -2.74114731
 C            1.73782567        1.63016976       -3.35237331
 C            1.85525607        0.32510229       -3.98286172
 C            0.34036730        1.98472823       -3.31275730
 C            0.18293377       -1.46482190       -4.10804539
 C           -1.07093341       -1.78543833       -3.44425283
 C           -1.87796711       -0.76050254       -2.94402726
 C           -1.64335060        0.56450156       -3.34982543
 C            0.51625865       -0.13575170       -4.31772513
 C           -0.41692525        0.89956419       -3.91641809
