   70
C70 / DATE: 7/ 1/2024 / Origin: Program Fullerene / C70 from database
 C            1.47686402       -0.45788503        5.10382369
 C            0.62231471       -1.60543610        4.86205491
 C            1.19543062       -2.36236578        3.76326080
 C            2.57386145       -0.51310829        4.15362510
 C            2.37656309       -1.66476347        3.29736509
 C            2.67398110        0.78750879        3.52188059
 C            0.70900367        0.73824796        4.80551723
 C            1.51093010        1.56792959        3.92844233
 C           -0.66805883       -1.11192982        4.41466799
 C           -0.60096263        0.33321578        4.33822419
 C            0.13781665       -2.61240249        2.80440313
 C           -1.02020282       -1.83532931        3.20920093
 C            0.45528511       -2.62039358        1.45132386
 C            2.53440068       -1.49215362        1.92761242
 C            1.73539757       -2.23438604        1.05092198
 C            3.06830350        0.85187837        2.18806154
 C            3.16622975       -0.33849205        1.45717236
 C            2.80564456        2.03911680        1.50937096
 C            0.86562271        2.32989149        2.95802836
 C            1.64855900        2.81553991        1.91385467
 C           -1.10561960        0.95037796        3.20007832
 C           -0.50191746        2.12291279        2.73944615
 C           -1.71488017       -1.16409140        2.20994875
 C           -1.91160681        0.21282597        2.32583050
 C           -0.58524864       -2.45916657        0.54345365
 C           -1.69798878       -1.71238069        0.93242983
 C           -0.30644541       -2.60218707       -0.81071287
 C            2.01211426       -2.18454495       -0.31510780
 C            1.03167408       -2.59157359       -1.22320501
 C            3.50057335       -0.28286573        0.10960937
 C            3.03138912       -1.34433632       -0.76286315
 C            2.88716495        2.08252123        0.05964842
 C            3.34073569        0.96810255       -0.61795335
 C            1.01888683        3.33616557        0.71273481
 C            1.70692817        2.77060094       -0.43541262
 C           -1.14446478        2.83405707        1.73335290
 C           -0.35681197        3.44923205        0.67458168
 C           -2.55167790        0.87783592        1.28026543
 C           -2.31074454        2.24035432        1.10457430
 C           -2.49784007       -1.13149265       -0.04465953
 C           -3.03614972        0.13805100        0.19880026
 C           -1.33069438       -2.38758468       -1.73554797
 C           -2.44745131       -1.63807626       -1.34515657
 C           -1.09937741       -2.67483264       -3.07993136
 C            1.33122111       -2.51458884       -2.58082090
 C            0.26536949       -2.65806304       -3.55532133
 C            2.94732304       -0.77540168       -2.09700835
 C            2.75597547        0.64834041       -1.90722230
 C            2.15522208       -1.41004870       -3.03244048
 C            0.96863856        2.21779974       -1.48633548
 C            1.54010644        1.22547086       -2.28629517
 C           -1.04393008        3.19813060       -0.57889203
 C           -2.39545878        2.80971851       -0.22934982
 C           -0.38933464        2.52007455       -1.61178028
 C           -3.65550281        0.83161473       -0.83761102
 C           -3.13763394        2.14156342       -1.18223307
 C           -3.35328771       -1.16239737       -2.29200967
 C           -3.92142092        0.15134706       -2.09173545
 C           -1.87544460       -2.00659931       -4.10416131
 C           -3.02737281       -1.23362867       -3.70146906
 C            0.37342741       -1.52540767       -4.46588930
 C            1.27433219       -0.58758437       -3.83326595
 C            0.77757637        0.59565954       -3.27456238
 C           -0.96586403       -1.08844635       -4.77252744
 C           -1.15891474        1.89501616       -2.59758004
 C           -2.55223127        1.98007885       -2.49559924
 C           -3.38897197        0.99922457       -3.15066416
 C           -2.78824761        0.13439806       -4.13547926
 C           -0.56990116        0.94714183       -3.44849728
 C           -1.36320665        0.24199914       -4.36426549
