   70
C70 / DATE: 7/ 1/2024 / Origin: Program Fullerene / C70 from database
 C            1.45502925       -0.01354377        5.12746978
 C            0.61212341       -1.19262970        5.21132091
 C            1.24586848       -2.24024485        4.43472721
 C            2.56540348       -0.31583784        4.23850204
 C            2.49448415       -1.72269545        3.89968907
 C            2.55985937        0.66187923        3.16048783
 C            0.67620024        1.03610610        4.50159977
 C            1.46423546        1.58197474        3.41247800
 C           -0.65743212       -0.88417693        4.57130327
 C           -0.63556833        0.50653653        4.17496326
 C            0.25754324       -2.75660155        3.50345451
 C           -0.89824049       -1.87730691        3.54379309
 C            0.68520011       -3.20004123        2.26138024
 C            2.85649104       -2.10636683        2.61795891
 C            2.03898395       -3.09005905        1.93526060
 C            2.79022852        0.23772153        1.84806913
 C            3.17008025       -1.08456222        1.62469035
 C            2.26116731        0.98985575        0.79066076
 C            0.78223953        2.07433603        2.31348034
 C            1.43907994        2.07687624        1.09208239
 C           -1.16347300        0.85066406        2.93693079
 C           -0.60266760        1.94109787        2.28396499
 C           -1.45857211       -1.46975386        2.33390872
 C           -1.78546700       -0.12270372        2.14877216
 C           -0.23856452       -3.22697487        1.22213169
 C           -1.26979293       -2.27376814        1.21196756
 C            0.17919146       -3.79474937        0.02742696
 C            2.41915947       -3.02033969        0.53556711
 C            2.94775607       -1.68172476        0.31647072
 C            1.54356433       -3.53846035       -0.40044919
 C            2.25069564        0.46832446       -0.51093012
 C            2.42096398       -0.90301244       -0.71169239
 C            1.75413039        1.25386086       -1.55354898
 C            0.81979665        2.75872193        0.05429397
 C            1.24610519        2.51855308       -1.24559763
 C           -1.25426732        2.41847042        1.15851158
 C           -0.49759382        3.16250778        0.26224212
 C           -2.30798850        0.29136031        0.91958639
 C           -2.30358104        1.65801122        0.64896562
 C           -1.88538592       -1.90932282        0.01035326
 C           -2.36255408       -0.60639426       -0.15477869
 C           -0.66928405       -3.68581998       -1.13646750
 C           -1.75552750       -2.72994967       -1.10170107
 C            1.44478434       -2.87976191       -1.68561711
 C            1.78582325       -1.52972854       -1.78947889
 C            0.19073881       -3.31966226       -2.24845375
 C            1.40631820        0.63837867       -2.76104611
 C            1.19217404       -0.74495747       -2.78575074
 C            0.94760707        1.41507598       -3.82310509
 C            0.75296593        3.33744189       -2.25547976
 C            0.66952426        2.82100984       -3.60434402
 C           -1.16789636        3.83143295       -0.75101569
 C           -0.46510089        4.08417432       -1.99528889
 C           -2.94939974        2.11357813       -0.49266820
 C           -2.50391531        3.36945223       -1.07814922
 C           -2.72760591       -0.14293943       -1.43259837
 C           -3.17238231        1.17318732       -1.57580915
 C           -1.82322237       -2.13898576       -2.42092759
 C           -0.53749177       -2.37862566       -3.05522325
 C            0.13046883       -1.27112387       -3.54667806
 C           -2.37774181       -0.87329413       -2.57687456
 C           -0.13125594        0.89077321       -4.62868420
 C           -0.67135708       -0.39236761       -4.25395015
 C           -2.01484898       -0.18390989       -3.73690310
 C           -0.67004383        3.09874178       -4.10836083
 C           -1.38969744        3.83335667       -3.08741682
 C           -2.59834594        3.25697725       -2.52119898
 C           -2.95564078        1.88131656       -2.83098125
 C           -1.22178607        1.84822741       -4.59123781
 C           -2.33229278        1.22241444       -3.88205797
