   70
C70 / DATE: 7/ 1/2024 / Origin: Program Fullerene / C70 from database
 C            1.16919441       -0.05677150        4.53457480
 C            2.45042794       -0.37441103        3.94779537
 C            2.37927537       -1.73948023        3.45439452
 C            0.31196916       -1.22368742        4.37442317
 C            0.98145700       -2.13336937        3.47578203
 C           -0.99640224       -0.74078102        4.00790186
 C            0.43072754        1.07919130        4.01763248
 C           -0.96423848        0.70868347        4.12497176
 C            0.87093578        1.72014622        2.85802655
 C            2.93511879        0.44763506        2.85990574
 C            2.19426529        1.54439225        2.41986960
 C            3.09248031       -1.79177553        2.19092377
 C            3.52159527       -0.43963169        1.86835359
 C            2.57048520       -2.57865605        1.18086731
 C            0.36881518       -2.49731305        2.27667518
 C            1.18060277       -3.00790057        1.26884746
 C           -1.65447142       -1.30254832        2.91831071
 C           -0.91993449       -2.02747042        1.96291437
 C           -2.84843557       -0.69957740        2.54794106
 C           -1.89827082        1.43440479        3.40731398
 C           -3.02934417        0.70822971        2.86305981
 C           -0.06885913        2.35459502        2.03050636
 C           -1.42397147        2.32766986        2.36034999
 C            0.29727947        2.76808078        0.75090213
 C            2.60331150        2.14001846        1.23248436
 C            1.64580328        2.88971464        0.44776914
 C            3.55302773       -0.01416171        0.54029994
 C            3.39873135        1.35157996        0.30331559
 C            2.81862823       -2.20033991       -0.19473233
 C            3.30937287       -0.93060505       -0.49251650
 C            0.67042790       -3.11673930       -0.07947410
 C            1.73365581       -2.74450852       -0.99346827
 C           -1.44469002       -2.22645719        0.66929791
 C           -0.61402276       -2.69126572       -0.36054855
 C           -3.38383882       -0.91978950        1.22542805
 C           -2.74995833       -1.80739729        0.36465297
 C           -3.44300081        1.38439777        1.64959174
 C           -2.40131779        2.31218836        1.28277312
 C           -3.80072143        0.36916004        0.69162266
 C           -0.65458092        2.77777264       -0.27443628
 C           -1.94152509        2.31063915       -0.02884141
 C           -0.26893113        3.01684854       -1.58487974
 C            2.08351278        2.84697200       -0.93665942
 C            3.12804264        1.83822128       -1.03692132
 C            1.13745652        2.96405834       -1.94404428
 C            3.19818847       -0.48418013       -1.80787405
 C            3.12089252        0.93907352       -2.09143185
 C            1.39838220       -2.11701444       -2.18761870
 C            2.27541818       -1.16331630       -2.70532911
 C           -0.94532031       -2.44330170       -1.68822233
 C            0.06603794       -2.12243611       -2.60861192
 C           -3.16305675       -1.76879229       -0.96877895
 C           -2.28345089       -2.26759566       -2.00331029
 C           -3.56252891        0.59949748       -0.65378075
 C           -2.61698797        1.57670496       -1.02132464
 C           -3.70964094       -0.51457125       -1.46211575
 C           -1.03145071        2.40669478       -2.65709311
 C           -2.16041514        1.64381109       -2.35136378
 C            1.25725806        2.15565698       -3.14576842
 C            2.19447379        1.12871620       -3.19757401
 C            1.79887644       -0.18786956       -3.67393160
 C           -0.08400796        1.93251414       -3.65954505
 C           -0.24590015       -1.50351709       -3.81945414
 C            0.54665876       -0.36696038       -4.24561533
 C           -0.36162332        0.76587042       -4.35882138
 C           -2.66113953       -1.60319735       -3.23535772
 C           -3.39892497       -0.40726102       -2.86504476
 C           -2.62601488        0.73254764       -3.30113191
 C           -1.62150984       -1.20203819       -4.15430363
 C           -1.71429927        0.24100245       -4.31955370
