   70
C70 / DATE: 7/ 1/2024 / Origin: Program Fullerene / C70 from database
 C            1.49426839       -0.03684367        4.72765951
 C            0.72521667       -1.23028188        4.43884094
 C            1.34584656       -1.91495896        3.31554397
 C            2.64681694       -0.03917272        3.85099374
 C            2.55576350       -1.19368394        2.97081068
 C            2.71607174        1.26952748        3.23612602
 C            0.67449381        1.10624100        4.35897046
 C            1.38060447        1.84010050        3.32911509
 C           -0.65818691       -0.82427605        4.30304151
 C           -0.65166989        0.61136040        4.06308203
 C           -1.47327819       -1.60523963        3.49952474
 C            0.52279112       -2.39294906        2.30193368
 C           -0.83708444       -2.52777912        2.56962865
 C            0.94408142       -2.31622192        0.97256518
 C            2.89051731       -1.01793381        1.63194560
 C            2.13258204       -1.64648440        0.63996482
 C            3.36232487        1.35559918        2.01901728
 C            3.61913079        0.11865982        1.29480240
 C            2.82972914        2.26822766        1.03279865
 C            0.70892999        2.18537999        2.15363105
 C            1.45807735        2.51676204        1.02118161
 C           -1.32439566        1.09405169        2.94585571
 C           -0.65672644        1.91352387        2.01977661
 C           -2.54362045       -0.95541104        2.76394947
 C           -2.47397787        0.41613285        2.54429363
 C           -1.75962866       -2.73695907        1.47116596
 C           -2.88118668       -1.82568549        1.65183412
 C            0.10769907       -2.79929469       -0.03992536
 C           -1.26491566       -2.93799579        0.19132550
 C            0.60106484       -2.90807976       -1.33555089
 C            2.47359153       -1.46072760       -0.70571965
 C            1.83070066       -2.21961089       -1.67934333
 C            3.76384986        0.47931582       -0.10232715
 C            3.48490267        1.90683221       -0.20313545
 C            3.26962384       -0.37282869       -1.08505441
 C            2.95439792        2.38834951       -1.38394089
 C            0.81693238        2.73113650       -0.20460940
 C            1.58595311        2.88462933       -1.36159929
 C           -1.31092652        2.27814684        0.84276016
 C           -0.56077386        2.51772633       -0.31620400
 C           -3.24199105        0.95789088        1.52565408
 C           -2.68009343        2.04942060        0.75766051
 C           -3.49289467       -1.27534765        0.52826266
 C           -3.89055203        0.06087771        0.58093652
 C           -2.15966694       -2.79699077       -0.86408316
 C           -3.29141793       -1.89678120       -0.70604844
 C           -0.30874336       -2.79279133       -2.46427074
 C           -1.67081201       -2.67940400       -2.22495761
 C            1.68669516       -1.69470538       -3.02765889
 C            0.32339896       -1.94932101       -3.46487983
 C            3.19032760        0.12469262       -2.38555111
 C            3.09620782        1.56193912       -2.56613881
 C            2.30379630       -0.49621181       -3.35373988
 C            0.99403306        2.59223860       -2.65392649
 C            1.95973187        1.82553512       -3.42379984
 C            1.53989738        0.56229368       -4.00350345
 C           -1.14767952        2.40980855       -1.58896055
 C           -0.34177354        2.22530969       -2.71082238
 C           -3.32906095        2.04544134       -0.53445257
 C           -4.09409283        0.81093065       -0.64500841
 C           -2.51006929        2.16228678       -1.71750684
 C           -3.44635199       -1.15514360       -1.95024342
 C           -2.44359072       -1.63926732       -2.88794693
 C           -3.76392630        0.19638631       -1.91586301
 C           -2.95011547        1.14588338       -2.65681567
 C           -0.40646368       -0.93785390       -4.08134837
 C            0.18644761        0.37839744       -4.24955849
 C           -0.75623486        1.34684226       -3.71328853
 C           -1.81032917       -0.74620409       -3.74479330
 C           -2.04426678        0.68456249       -3.60207602
