   70
C70 / DATE: 7/ 1/2024 / Origin: Program Fullerene / C70 from database
 C            1.21749610       -0.04769654        4.14922127
 C            2.50564718       -0.39670612        3.60506513
 C            2.41006771       -1.74854985        3.06501636
 C            0.38811063       -1.23922650        4.08981106
 C            1.03245781       -2.16590359        3.18609718
 C           -0.95755195       -0.81164035        3.76592215
 C            0.47106101        1.02463529        3.52382782
 C           -0.92211707        0.63092483        3.56461690
 C            0.95937915        1.63923263        2.37077472
 C            3.05846852        0.42832319        2.55289317
 C            2.28272336        1.42780872        1.95384991
 C            3.01586873       -1.72223150        1.74959048
 C            3.77647366       -0.48969859        1.69515731
 C            2.25804326       -2.08742443        0.63677534
 C            0.33237551       -2.55116812        2.05082156
 C            0.97555359       -2.61799065        0.80592068
 C           -1.71343094       -1.57613597        2.88152934
 C           -1.06143006       -2.53901555        2.09873745
 C           -2.88367690       -0.99604986        2.40594819
 C           -1.79864189        1.18624653        2.64270415
 C           -2.93517833        0.45282742        2.30084476
 C            0.05442069        2.27107838        1.51588655
 C           -1.32707401        2.15695111        1.75750102
 C            0.53593538        2.94995767        0.39129680
 C            2.70543120        1.92151612        0.71429074
 C            1.83667838        2.70671096       -0.05665747
 C            4.16348437       -0.02613161        0.45760733
 C            3.84190863        1.34661502        0.13170659
 C            2.64004790       -1.61063773       -0.61853195
 C            3.76639315       -0.79164071       -0.70880812
 C            1.72685430       -1.65850959       -1.67609316
 C            0.23366287       -2.98359598       -0.31919243
 C            0.60694697       -2.48748680       -1.57774428
 C           -1.75400264       -3.20164174        1.09257396
 C           -1.02994639       -3.54336369       -0.11784742
 C           -3.55283368       -1.55494671        1.24581715
 C           -3.07411813       -2.73484454        0.69936489
 C           -3.67999389        0.78530644        1.09661112
 C           -3.88574587       -0.45001235        0.35854667
 C           -2.24230469        2.73835191        0.88644871
 C           -3.34848799        1.93501860        0.40061646
 C           -0.34634442        3.61855631       -0.45753010
 C           -1.77051056        3.52447098       -0.22849740
 C           -0.15981945        3.50072653       -1.89031250
 C            2.16403799        3.04266967       -1.37507488
 C            1.09836352        3.16719349       -2.34957741
 C            4.06531112        1.45108696       -1.29405959
 C            3.90604616        0.10798702       -1.83758944
 C            3.22881296        2.34125394       -2.05864351
 C            1.74578681       -0.67307062       -2.67304054
 C            1.22735977        2.01794651       -3.22943840
 C            2.84489035        0.16132938       -2.81724378
 C            2.60472029        1.56078394       -3.11595878
 C            0.54724904       -0.28243568       -3.26103808
 C            0.20393208        1.07023276       -3.25501366
 C           -0.31094581       -2.45804583       -2.63002520
 C           -0.45631260       -1.22707376       -3.37961132
 C           -1.99406746       -3.59370387       -1.19782733
 C           -3.20362850       -2.93617350       -0.73285831
 C           -1.64014279       -3.00740984       -2.46756237
 C           -3.53475735       -0.52336288       -0.98967574
 C           -1.82839380       -0.79216447       -3.21250449
 C           -3.42698919       -1.77777017       -1.58135720
 C           -2.58667134       -1.93539255       -2.74654821
 C           -3.20146585        1.85327123       -1.04052721
 C           -2.36927953        2.97095061       -1.43775428
 C           -1.29363012        2.73696941       -2.37592398
 C           -1.08201425        1.44607481       -2.85137536
 C           -3.00526181        0.60493285       -1.62861728
 C           -2.05523091        0.46091102       -2.65333175
