   70
C70 / DATE: 7/ 1/2024 / Origin: Program Fullerene / C70 from database
 C            1.21177061        0.08222232        4.25569840
 C            2.50256785       -0.19920993        3.66845476
 C            2.55331087       -1.62342945        3.40315232
 C            0.39854487       -1.12067653        4.15158738
 C            1.20067921       -2.14382808        3.52106985
 C           -0.85610787       -0.75150611        3.53624288
 C            0.43781024        1.17242195        3.70502269
 C           -0.91678979        0.69522204        3.48577092
 C            0.99835714        1.99577355        2.73595888
 C            2.87078970        0.48908802        2.44359025
 C            2.05836936        1.51038072        1.95634804
 C            3.25068413       -1.81327400        2.14503778
 C            3.37315523       -0.50657907        1.51226911
 C            2.87469151       -2.89176534        1.36235367
 C            0.68120633       -2.87053345        2.45248098
 C            1.60125617       -3.53599952        1.64717972
 C           -1.30952675       -1.45736706        2.43796688
 C           -0.59198676       -2.55690263        1.93735874
 C           -2.30104855       -0.87487157        1.66402947
 C           -1.66884637        1.31405330        2.48506288
 C           -2.37532522        0.52367975        1.56625546
 C            0.14100276        2.92994385        2.17484771
 C           -1.27439546        2.59368925        2.10672591
 C            0.49533959        3.55499574        0.91858443
 C            2.10169636        1.80823197        0.59146204
 C            1.47425478        2.96434401        0.12879137
 C            3.07908019       -0.36760811        0.15631353
 C            2.60021396        0.86045575       -0.31602450
 C            2.96038613       -2.76925733       -0.07812485
 C            3.00950774       -1.50443010       -0.65834807
 C            1.15507055       -4.17157083        0.42922424
 C            2.05661833       -3.76072386       -0.63554745
 C           -1.08182893       -3.23815885        0.80662108
 C           -0.19565809       -3.92748171       -0.01725006
 C           -2.98107383       -1.68486118        0.77530909
 C           -2.27948333       -2.82464880        0.22319710
 C           -3.75346593       -1.08540459       -0.28855400
 C           -2.98453513        1.12640413        0.45119854
 C           -3.71412072        0.35210495       -0.44960574
 C           -1.80806725        3.18392231        0.89619679
 C           -0.74884707        3.99283835        0.30961532
 C           -2.63019325        2.42535979        0.07245986
 C           -0.77275613        4.26190826       -1.05094533
 C            1.52627043        3.27617673       -1.22306865
 C            0.43390811        4.02943198       -1.82498870
 C            2.44988426        1.05464207       -1.69300892
 C            1.91535876        2.24720776       -2.16407151
 C            2.60777470       -1.37309529       -1.98366787
 C            2.31856866       -0.05843451       -2.51345380
 C            1.25235377       -3.40146304       -1.79052706
 C           -0.14333060       -3.57586237       -1.42787157
 C            1.61538386       -2.28953130       -2.52876694
 C           -2.31888988       -2.68005207       -1.22399239
 C           -3.30380433       -1.67367523       -1.54244876
 C           -1.11677943       -2.70904810       -1.92090558
 C           -3.55520306        0.59863886       -1.87087062
 C           -2.91676771       -0.58537506       -2.40988580
 C           -2.81865049        2.83065103       -1.24940455
 C           -1.90016488        3.79262961       -1.83708814
 C           -3.07680101        1.83070252       -2.26898690
 C            0.05405689        3.35716663       -3.05764538
 C            0.87387722        2.17148966       -3.17479813
 C           -1.38137405        3.20198945       -3.06259730
 C           -1.93636299        1.86441910       -3.16544697
 C            1.13323590       -0.16743768       -3.35187623
 C            0.57443306       -1.48572807       -3.14059400
 C           -0.73691275       -1.59831100       -2.69506871
 C           -1.59478910       -0.49961332       -2.84463886
 C            0.28991721        0.93190430       -3.42962196
 C           -1.08749968        0.75362546       -3.22374278
