   70
C70 / DATE: 7/ 1/2024 / Origin: Program Fullerene / C70 from database
 C            1.23764078       -0.07351281        5.57708219
 C            0.41475713       -1.24991375        5.36447809
 C            1.09936150       -2.10530278        4.41155407
 C            2.42831253       -0.21014854        4.75479394
 C            2.27752692       -1.40335574        3.94296486
 C            2.62854080        1.05336630        4.08450040
 C            0.50444457        1.07714125        5.07617226
 C            1.43050561        1.85876836        4.29046781
 C           -0.81830054       -0.81908090        4.73193820
 C           -0.70579772        0.59479120        4.43490236
 C            0.12365645       -2.51881199        3.41822706
 C           -1.07091136       -1.71805505        3.62396335
 C            0.54992873       -2.69542718        2.10365635
 C            2.48018719       -1.33905715        2.56554507
 C            1.84539348       -2.29470376        1.76941477
 C            2.89400494        1.04396252        2.65866559
 C            2.94764551       -0.15869625        1.96246628
 C            1.00361759        2.32171992        2.98561143
 C            2.11271602        2.11197444        2.08048062
 C           -1.02221598        1.01374115        3.14131296
 C           -0.27365059        2.02059378        2.51720146
 C           -1.68523001       -1.20919261        2.48901671
 C           -1.80707078        0.17397083        2.34569877
 C           -0.42152264       -2.68578446        1.10030232
 C           -1.59912919       -1.96404937        1.32720644
 C           -0.03646001       -2.98335563       -0.20866085
 C            2.25287470       -2.41009528        0.44916245
 C            1.30970568       -2.90235735       -0.54118838
 C            2.95094549       -0.08569577        0.56722557
 C            2.94113200       -1.27936326       -0.13802259
 C            1.81630912        2.03451488        0.72993382
 C            2.46135561        1.07478111       -0.05130498
 C           -0.52444590        2.27855890        1.16989618
 C            0.56239116        2.47003584        0.31694352
 C           -2.27480173        0.65566545        1.12560690
 C           -1.71716438        1.82866452        0.61650239
 C           -2.37774141       -1.56848243        0.24604292
 C           -2.84479015       -0.25276681        0.23334410
 C           -0.98345563       -2.92001576       -1.22438583
 C           -2.24705238       -2.26927633       -0.94631842
 C           -0.57649568       -2.53907302       -2.57161038
 C            1.69759053       -2.33758314       -1.82329556
 C            2.64306008       -1.26671314       -1.55274885
 C            0.73788334       -2.14244192       -2.81503367
 C            2.19452360        1.08220262       -1.42587055
 C            2.45998163       -0.05636175       -2.19865798
 C            0.32772957        2.54834153       -1.04821682
 C            1.30163598        2.04539158       -1.90950931
 C           -2.02463756        2.20324672       -0.69203413
 C           -0.98455109        2.67678531       -1.50015486
 C           -3.46522174        0.25542090       -0.90216595
 C           -3.14255709        1.61507905       -1.27945212
 C           -2.73978335       -1.69344836       -2.18283892
 C           -1.68209029       -1.80891426       -3.17832604
 C           -3.49415577       -0.53383428       -2.12292185
 C           -1.41999525       -0.74804183       -4.04324354
 C            0.98966542       -1.17577035       -3.78896942
 C            1.95319524       -0.12446935       -3.49132058
 C           -0.11765340       -0.56185648       -4.50562505
 C            1.14022518        2.20208654       -3.28097691
 C            1.49693471        1.09085039       -4.13264624
 C            0.32932947        0.75586850       -4.92858240
 C           -1.20223413        2.95390914       -2.84925477
 C           -0.10812795        2.75174959       -3.78295947
 C           -0.58678303        1.87354518       -4.84239226
 C           -3.36815459        1.73646976       -2.70555628
 C           -3.44876049        0.38689155       -3.24434414
 C           -2.38461440        0.24782579       -4.22253882
 C           -2.40475539        2.46896850       -3.49802875
 C           -1.98439663        1.59812575       -4.58312455
