   70
C70 / DATE: 7/ 1/2024 / Origin: Program Fullerene / C70 from database
 C            1.52279916       -0.22908265        4.86933044
 C            0.67124838       -1.40235438        4.91224050
 C            1.17903984       -2.35563948        3.94084296
 C            2.55137929       -0.46321972        3.87096403
 C            2.31040412       -1.75782102        3.26389387
 C            2.58839020        0.69567026        2.99891632
 C            0.71792962        0.88537792        4.40193398
 C            1.44949072        1.53338906        3.33399213
 C           -0.65435756       -1.00493754        4.47069696
 C           -0.61285424        0.39579969        4.10441091
 C            0.06113968       -2.78838833        3.13041369
 C           -1.07848565       -1.95224567        3.46171037
 C            0.27499214       -3.05626186        1.78413655
 C            2.37060831       -1.84524318        1.87758247
 C            1.50125196       -2.70971016        1.20042909
 C            2.86476761        0.50077950        1.64862984
 C            2.97509915       -0.80691790        1.17074412
 C            2.48995895        1.50508256        0.75511107
 C            0.73413833        2.07977984        2.27813211
 C            1.42865462        2.34736665        1.10803336
 C           -1.19669206        0.77720722        2.90014067
 C           -0.63641404        1.83136376        2.17649950
 C           -1.85269368       -1.49589991        2.40255242
 C           -2.03810997       -0.11666408        2.23519713
 C           -0.84734515       -3.12554218        0.96531194
 C           -1.94325798       -2.31557465        1.28114219
 C           -0.67250085       -3.60029903       -0.32765000
 C            1.66460175       -2.88961459       -0.17869058
 C            0.65953904       -3.53669437       -0.89839911
 C            3.24280122       -1.00227984       -0.17534483
 C            2.60787659       -2.11634115       -0.85964226
 C            2.87316367        1.39426668       -0.58443809
 C            3.23213659        0.14069319       -1.07388122
 C            2.44072607        2.35658474       -1.49470223
 C            0.78281876        3.08249722        0.12490408
 C            1.48083638        3.34206348       -1.04735839
 C           -1.30134431        2.28093972        1.03578123
 C           -0.61559250        3.10381150        0.13580559
 C           -2.72806546        0.33749155        1.11003178
 C           -2.46278769        1.61919099        0.62239200
 C           -2.86523427       -1.96948592        0.30358484
 C           -3.33651374       -0.59800141        0.27205107
 C           -1.62777924       -3.26047342       -1.36840714
 C           -2.67570269       -2.40717993       -1.06868956
 C            0.51717308       -3.28688441       -2.32252766
 C           -0.88918735       -3.05058104       -2.59898276
 C            2.37153667       -1.71022193       -2.24014518
 C            2.68262488       -0.29748033       -2.34640654
 C            1.27658250       -2.20993571       -2.92375143
 C            2.00575774        1.92062351       -2.81378212
 C            1.82412228        0.55926877       -3.02698135
 C            0.78150856        3.82717276       -2.21987067
 C            0.99780037        2.85312919       -3.27909288
 C           -1.32124877        3.72786581       -0.88986151
 C           -0.64264622        4.06273973       -2.12722370
 C           -3.12904452        2.05101032       -0.52309965
 C           -2.61382705        3.19197516       -1.26082261
 C           -3.60262286       -0.26160482       -1.11710565
 C           -2.93648617       -1.26496820       -1.93222950
 C           -3.53221561        1.06331700       -1.50739249
 C           -1.00453643       -1.77133677       -3.27870869
 C            0.33653791       -1.27747157       -3.52717784
 C            0.56761836        0.09171747       -3.43747816
 C           -1.98470964       -0.86946059       -2.87690936
 C           -0.29763325        2.32702901       -3.64832765
 C           -1.27619715        3.28930250       -3.18253134
 C           -2.53155431        2.79999037       -2.66188925
 C           -2.79649025        1.37742982       -2.71384943
 C           -0.52688723        0.96326403       -3.47453906
 C           -1.80603661        0.49062676       -3.13964933
