   70
C70 / DATE: 7/ 1/2024 / Origin: Program Fullerene / C70 from database
 C            1.46741973        0.05952221        5.05192769
 C            0.68419891       -1.15923014        4.99668242
 C            1.56831661       -2.20566158        4.52900629
 C            2.65904974       -0.15331650        4.24372546
 C            2.73498584       -1.56248727        3.93795864
 C            2.61355776        0.78935321        3.14433984
 C            0.69130630        1.10957767        4.41735528
 C            1.52212650        1.70806532        3.40092991
 C           -0.53209287       -0.87370420        4.24729647
 C           -0.57564328        0.55585941        3.99159334
 C           -0.95720627       -1.74146811        3.24237292
 C            1.05675274       -3.14475374        3.55589436
 C           -0.26842824       -2.93326299        3.00030718
 C            2.79670456       -1.96843347        2.54564356
 C            1.97904873       -3.15485045        2.43156202
 C            2.79597255        0.35468203        1.82807239
 C            2.71606016       -1.01348610        1.53086648
 C            2.49301628        1.27061089        0.81603826
 C            0.90337156        2.24208915        2.28629010
 C            1.68513814        2.35864500        1.15093351
 C           -1.10216219        0.99463281        2.78039274
 C           -0.46944996        2.03793585        2.09859760
 C           -1.79541616       -1.25045739        2.24065347
 C           -1.91931549        0.13295316        2.05836850
 C           -2.12804955       -2.09889233        1.18747476
 C           -0.20341441       -3.42683282        1.63824146
 C            1.18392544       -3.32076225        1.23088884
 C           -1.15717676       -2.98992691        0.73424942
 C            2.28025511       -1.41086526        0.26194938
 C            1.46056230       -2.53632414        0.11683150
 C            2.53218868        0.84836663       -0.51283322
 C            2.35468925       -0.50697698       -0.79074144
 C            2.31649730        1.78413079       -1.52835918
 C            1.18732731        3.16301214        0.14550818
 C            1.64980072        2.96565673       -1.21125825
 C           -1.03674697        2.50476914        0.90639914
 C           -0.25167357        3.32934725        0.09573629
 C           -2.55717334        0.61678010        0.91699811
 C           -2.11452381        1.81256983        0.33947654
 C           -3.10320361       -1.68098569        0.29076419
 C           -3.36109077       -0.25662706        0.18605305
 C           -3.06143380       -2.21435483       -1.05889943
 C           -0.78824797       -2.92620645       -0.60687411
 C            0.52175934       -2.54672926       -0.91714370
 C           -1.79740415       -2.74019862       -1.53777587
 C            1.84179577       -0.88155195       -2.02775421
 C            0.77775279       -1.79077585       -2.06448698
 C            2.32750766        1.35195051       -2.85262941
 C            2.09905502       -0.05717029       -3.11353849
 C            1.58608631        2.11098512       -3.84684765
 C            0.60000147        3.46685272       -2.08634970
 C           -0.61554823        3.56670955       -1.29073746
 C            0.53898954        3.00661742       -3.39367479
 C           -2.61190574        2.20768725       -0.90439242
 C           -1.80342283        3.04466578       -1.77502786
 C           -3.69601463        0.03821161       -1.19874710
 C           -3.49037037       -1.16954076       -1.97013518
 C           -3.29982537        1.24588219       -1.74612907
 C           -1.49444348       -2.09077857       -2.79555784
 C           -0.18612407       -1.72383005       -3.08282160
 C           -2.55642043       -1.13763868       -3.07920233
 C            1.26241306       -0.16721497       -4.28640386
 C            0.99853397        1.17194673       -4.78343643
 C           -0.00268821       -0.85035974       -4.14970960
 C           -0.72596183        2.52112766       -3.92978140
 C           -1.85308025        2.48196173       -3.11692810
 C           -2.66151394        1.26973964       -3.05875465
 C           -2.20712973        0.08262167       -3.64958010
 C           -0.43987344        1.37453931       -4.76799847
 C           -1.06199143        0.10559721       -4.44286938
