   70
C70 / DATE: 7/ 1/2024 / Origin: Program Fullerene / C70 from database
 C            1.31115350       -0.04146143        4.27565391
 C            2.49674531       -0.36626955        3.52129363
 C            2.36169326       -1.73894096        3.05327736
 C            0.48946198       -1.24000732        4.33333083
 C            1.01296921       -2.16614979        3.34450346
 C           -0.89727733       -0.82315886        4.22886027
 C            0.46304080        1.03069922        3.80128993
 C           -0.90060430        0.62695404        4.09109438
 C            0.74189592        1.66362897        2.58556902
 C            2.82819412        0.44172845        2.36582902
 C            1.96203836        1.44615541        1.92772119
 C            2.81346871       -1.76969680        1.68065958
 C            3.37198421       -0.46884977        1.38095516
 C            2.02349850       -2.36630925        0.70858211
 C            0.18516117       -2.57753415        2.30195302
 C            0.69189118       -2.70364976        1.00024460
 C           -1.75653575       -1.58204669        3.44444036
 C           -1.19384832       -2.53547965        2.49658288
 C           -2.89266253       -0.94164719        2.80456175
 C           -1.92906807        1.24582829        3.39854811
 C           -3.00338089        0.44498377        2.82871734
 C           -0.28530990        2.35024654        1.93356941
 C           -1.59071971        2.26545365        2.42291410
 C           -0.05824057        2.92411117        0.68241220
 C            2.13545963        1.92435967        0.62542633
 C            1.19530257        2.80579151        0.08306344
 C            3.36754190       -0.06097350        0.05935254
 C            3.04378790        1.26342898       -0.21263849
 C            2.38918499       -2.15242931       -0.61958847
 C            3.14565151       -1.01622643       -0.93245258
 C            1.68419086       -2.81937387       -1.61531042
 C           -0.17924286       -3.01614489       -0.04899871
 C            0.35100019       -3.29881926       -1.30349553
 C           -2.08478194       -2.60636134        1.35216779
 C           -3.17382553       -1.66972586        1.57769731
 C           -1.54503248       -2.73869852        0.07768425
 C           -3.72667754       -1.00606950        0.49229349
 C           -3.50370901        1.15254316        1.65885428
 C           -2.70719635        2.35981245        1.50132694
 C           -3.90440339        0.43753030        0.53549032
 C           -1.14411806        3.34761306       -0.08684458
 C           -2.47743030        2.87643466        0.23634348
 C           -1.04206189        3.32424285       -1.53261903
 C            1.36589452        3.29125501       -1.21385149
 C            0.21595626        3.34447972       -2.09897190
 C            3.29651984        1.74490048       -1.49015106
 C            2.47901203        2.81713916       -2.01258489
 C            3.30781012       -0.63322502       -2.26125120
 C            3.48924192        0.78091156       -2.56013704
 C            1.67400225       -2.30267596       -2.97631023
 C            2.41464624       -1.16978032       -3.27050471
 C           -0.47757107       -3.08762214       -2.47062516
 C            0.30629920       -2.36585614       -3.45637479
 C           -2.28603549       -2.30248498       -1.02938792
 C           -3.29177891       -1.35972125       -0.84652432
 C           -1.72704198       -2.38195960       -2.29847328
 C           -3.63204073        0.96342665       -0.79438471
 C           -2.98067680        2.17755206       -0.93893639
 C           -1.98925995        2.32400121       -1.99120500
 C           -3.25424185       -0.14844992       -1.64850729
 C           -0.38357519       -1.12081789       -3.75719121
 C           -1.67579326       -1.16976078       -3.10520257
 C           -1.51971522        1.19534585       -2.66779149
 C           -2.23539603       -0.00555701       -2.59143912
 C            0.49483569        2.41666397       -3.17591861
 C            1.93823491        2.37708064       -3.29173614
 C            2.57045933        1.12523412       -3.63429750
 C            1.73363170       -0.03300662       -3.86755849
 C           -0.24719236        1.23457797       -3.25791114
 C            0.34458579        0.06282675       -3.75308833
