   70
C70 / DATE: 7/ 1/2024 / Origin: Program Fullerene / C70 from database
 C            1.23576207        0.15940921        5.28913735
 C            0.43485667       -1.04704819        5.17947126
 C            1.26971002       -2.09204976        4.61537725
 C            2.52307018       -0.10723294        4.67368905
 C            2.56342856       -1.51067355        4.30424907
 C            2.73324111        0.88676935        3.63725355
 C            0.58078658        1.19770973        4.51080069
 C            1.51631693        1.67479856        3.51212280
 C           -0.79656239       -0.70075641        4.49414876
 C           -0.69325614        0.68244888        4.05496525
 C           -1.35977803       -1.62274880        3.62288784
 C            0.80012860       -2.79571219        3.43347696
 C           -0.53643779       -2.70196588        3.07988527
 C            2.89153533       -1.85919142        2.93201405
 C            1.80586895       -2.66164285        2.39109946
 C            3.39026670        0.51103016        2.47573625
 C            3.47666037       -0.90411311        2.11694524
 C            3.09729807        1.23665175        1.25471960
 C            1.03580591        1.97426158        2.23692350
 C            1.92785325        1.99044972        1.16456827
 C           -1.11888073        1.00799544        2.76977413
 C           -0.33035314        1.84798633        1.97428568
 C           -2.18013093       -1.12806835        2.53152247
 C           -2.08332950        0.20716529        2.15551200
 C           -0.89515105       -2.85196713        1.68283315
 C           -2.13528922       -2.12890626        1.49036824
 C            1.40680931       -2.48302741        1.05953698
 C            0.08502085       -2.75680042        0.69294934
 C            3.26858452       -0.99513072        0.68435178
 C            3.41885717        0.34551524        0.16164023
 C            2.24074254       -1.79012489        0.17468754
 C            2.84722127        0.61551145       -1.06329691
 C            1.44948850        2.29398911       -0.11179703
 C            2.17591065        1.82364534       -1.20466427
 C           -0.81163940        2.21185387        0.71933503
 C            0.09275000        2.58061303       -0.28107310
 C           -2.52698756        0.56321420        0.88375313
 C           -2.07854561        1.76688914        0.35543568
 C           -2.44066363       -1.73331152        0.20316284
 C           -2.93237334       -0.44573455        0.00227052
 C           -0.34002958       -2.50178859       -0.61364123
 C           -1.70587303       -2.30249742       -0.82292996
 C            1.80961997       -1.53337746       -1.13100550
 C            2.39390996       -0.46295271       -1.81194376
 C            0.57004537       -2.01740321       -1.55816409
 C            2.02935947       -0.20976037       -3.12518149
 C            1.77320083        2.17957685       -2.48223447
 C            1.92830217        1.18312320       -3.52839893
 C           -0.39007055        2.88592052       -1.55921855
 C            0.46983421        2.79516920       -2.65547415
 C           -2.62356121        2.20301063       -0.83955497
 C           -1.76697032        2.91406335       -1.76771321
 C           -3.32344975       -0.09649486       -1.29380888
 C           -3.40559776        1.26006703       -1.61553759
 C           -2.17047575       -2.09923466       -2.10803092
 C           -3.15894266       -1.05337612       -2.30213863
 C            0.12373265       -1.73166551       -2.85611801
 C            0.88961143       -0.91058009       -3.68376600
 C           -1.20841326       -1.97380896       -3.18086976
 C            0.81352969        1.31148718       -4.44415553
 C           -0.03774352        2.38418178       -3.96060651
 C            0.24169813       -0.00916870       -4.63260308
 C           -2.30345996        2.69935155       -3.10247336
 C           -3.36176401        1.70574445       -2.99922256
 C           -1.40698744        2.29081333       -4.16625483
 C           -3.09264972       -0.66721451       -3.70073614
 C           -1.85005670       -1.20451983       -4.23694174
 C           -1.12344817       -0.11515401       -4.85724063
 C           -3.16989496        0.73363912       -4.05517952
 C           -1.95205119        1.08114775       -4.76891489
