   70
C70 / DATE: 7/ 1/2024 / Origin: Program Fullerene / C70 from database
 C            1.27550605        0.02366789        4.32744229
 C            2.52277775       -0.25011003        3.65515515
 C            2.57249512       -1.67908899        3.41681339
 C            0.46480941       -1.18914920        4.27276752
 C            1.21755510       -2.18225816        3.55072496
 C           -0.83263435       -0.80474684        3.76676813
 C            0.43962605        1.09691305        3.82995806
 C           -0.91660336        0.62235448        3.99716439
 C            0.76556907        1.75194859        2.63744388
 C            2.77914150        0.40154085        2.38918324
 C            1.85542074        1.30878946        1.87346203
 C            3.24715738       -1.89109431        2.14939979
 C            3.35162950       -0.59312602        1.49550445
 C            2.84214241       -2.97577097        1.38816877
 C            0.64942812       -2.81497305        2.45115242
 C            1.52769179       -3.54222168        1.65631493
 C           -1.27210861       -1.30731240        2.53977742
 C           -0.53132369       -2.29830591        1.87803504
 C           -2.24203483       -0.57915906        1.83948850
 C           -1.90925419        1.31399633        3.34346000
 C           -2.76189000        0.56568060        2.44311772
 C           -0.23995902        2.51537492        2.02173650
 C           -1.51760162        2.48477571        2.58753850
 C           -0.07398183        2.95773686        0.69703503
 C            1.87179117        1.56381888        0.51032074
 C            1.08787843        2.59060987        0.00942251
 C            3.08898911       -0.49102154        0.13027239
 C            2.53966793        0.69538283       -0.36260479
 C            2.96536482       -2.89500025       -0.05172676
 C            3.05992887       -1.64549906       -0.66046254
 C            1.04782761       -4.13823394        0.43315444
 C            2.04033368       -3.87252337       -0.59647172
 C           -0.91777362       -2.68651539        0.58660012
 C           -0.22878562       -3.70192073       -0.07825232
 C           -2.39683436       -0.77849278        0.46112088
 C           -1.84010677       -1.91474616       -0.12493214
 C           -3.06946438        0.16361974       -0.34206301
 C           -3.43278624        1.56042332        1.63742022
 C           -2.66754360        2.79576829        1.77214708
 C           -3.59951630        1.31743206        0.22387706
 C           -1.15219308        3.54429536        0.00557150
 C           -2.45038387        3.30855380        0.44358826
 C           -3.35494336        2.58642676       -0.43238256
 C           -1.00854654        3.90425292       -1.33221862
 C            1.30409468        3.00376185       -1.29520794
 C            0.26871783        3.73626841       -1.98728694
 C            2.44578633        0.88502048       -1.74320680
 C            1.86749693        2.05198226       -2.23213396
 C            2.72189937       -1.53827711       -2.00698241
 C            2.42915963       -0.23335787       -2.56821740
 C            1.32757419       -3.54906071       -1.81820356
 C           -0.09482077       -3.64190443       -1.52241358
 C            1.79138140       -2.49420019       -2.59394117
 C           -2.00066044       -2.12376287       -1.49211247
 C           -0.98987012       -2.85806267       -2.23121720
 C           -2.94056217        0.11744002       -1.73350993
 C           -2.41817596       -1.02028650       -2.32881207
 C           -3.07799390        2.58563294       -1.78960622
 C           -2.03740070        3.48041496       -2.26906299
 C           -2.89329186        1.30789809       -2.46160257
 C            0.03629984        3.07658365       -3.26533917
 C            0.92736352        1.93879515       -3.33399435
 C           -1.38018862        2.84123642       -3.39543313
 C           -1.84726885        1.47096800       -3.46051498
 C            1.33495468       -0.38506777       -3.51588207
 C            0.85498190       -1.75163326       -3.42132173
 C           -0.50392459       -1.98106397       -3.28786613
 C           -1.41694162       -0.85836312       -3.37228710
 C            0.44017355        0.67328388       -3.66273709
 C           -0.94524661        0.42366157       -3.65109991
