   70
C70 / DATE: 7/ 1/2024 / Origin: Program Fullerene / C70 from database
 C            1.20583981       -0.07357345        4.29702295
 C            2.52644999       -0.42442573        3.82918958
 C            2.44282623       -1.74402369        3.21344779
 C            0.37979505       -1.25857437        4.15824576
 C            1.05042935       -2.14940383        3.24112226
 C           -0.94096015       -0.81099263        3.79840208
 C            0.50466457        1.01568461        3.63990027
 C           -0.88560785        0.62554663        3.57050534
 C            1.08567617        1.63521444        2.53986746
 C            3.16513267        0.44513223        2.86544739
 C            2.47027426        1.53926481        2.34778859
 C            3.12202347       -1.66360495        1.93254661
 C            3.87292683       -0.42330409        1.94426723
 C            2.42893824       -2.01542164        0.77900791
 C            0.41224143       -2.46601145        2.04434946
 C            1.17858697       -2.62897043        0.88791484
 C           -1.67751026       -1.55883141        2.89460982
 C           -0.98341422       -2.33264508        1.94376997
 C           -2.88198378       -0.98402396        2.53120305
 C           -1.70037700        1.14532494        2.56902167
 C           -2.88776896        0.45675852        2.33229516
 C            0.26459327        2.14525531        1.52461910
 C           -1.11596510        1.86038315        1.51397212
 C            0.83335834        2.91928918        0.50605443
 C            3.05469343        2.21469670        1.28527194
 C            2.21220468        2.90694898        0.33091487
 C            4.28277181        0.11353521        0.73547200
 C            4.10747760        1.54201175        0.54033618
 C            2.84714484       -1.50169021       -0.45359656
 C            3.85459355       -0.53510493       -0.49400807
 C            2.11003919       -1.77377765       -1.60920401
 C            0.57379715       -3.12087943       -0.25563714
 C            1.05166029       -2.67262449       -1.55047005
 C           -1.63036769       -2.76386425        0.77124204
 C           -0.87301406       -3.20039692       -0.31068753
 C           -3.65625743       -1.58932230        1.47931348
 C           -2.96694902       -2.44404099        0.54266961
 C           -3.65257923        0.72901943        1.13518335
 C           -4.28119431       -0.51657271        0.72975569
 C           -1.89118595        2.18979054        0.39164618
 C           -3.11191749        1.54962360        0.15610896
 C            0.06237719        3.29025595       -0.58715299
 C           -1.35390374        2.99907965       -0.59986075
 C            0.58229414        3.04041517       -1.92422147
 C            2.74430105        2.66489451       -1.00329793
 C            3.87968214        1.77218616       -0.87410428
 C            3.82401174        0.48247359       -1.53129288
 C            1.84813483        2.47976698       -2.05234927
 C            2.19683887       -0.91500817       -2.70131786
 C            2.94463661        0.32479611       -2.58882005
 C            2.03510635        1.41175017       -2.93286036
 C            1.00510252       -0.63264264       -3.48328934
 C            0.89114758        0.81407455       -3.60546653
 C           -0.10365258       -2.47972265       -2.41558115
 C           -1.29127061       -2.85233363       -1.66116009
 C           -0.14625033       -1.39013950       -3.28369215
 C           -3.38722496       -2.05479684       -0.79717628
 C           -4.24423364       -0.87869151       -0.67243014
 C           -2.47856480       -2.15224280       -1.85378398
 C           -3.59282451        1.42623717       -1.15007138
 C           -4.11869523        0.14329490       -1.59933163
 C           -1.73942494        2.78479223       -1.98412578
 C           -0.51741814        2.56072944       -2.74476348
 C           -0.36462227        1.39981688       -3.50394598
 C           -2.86016305        2.01826189       -2.25611937
 C           -1.37721678       -0.83133802       -3.61603048
 C           -2.58339943       -1.28643102       -2.94097076
 C           -3.49581709       -0.15971244       -2.86932182
 C           -1.47658675        0.61179922       -3.78472810
 C           -2.78345083        1.02703522       -3.31161548
