   70
C70 / DATE: 7/ 1/2024 / Origin: Program Fullerene / C70 from database
 C            1.24042276       -0.25158394        4.19083434
 C            2.39524665       -0.44425016        3.33342742
 C            2.28943749       -1.76791251        2.73665681
 C            0.39722966       -1.42997458        4.08201575
 C            1.06676200       -2.38566873        3.22294935
 C           -0.94158526       -0.99361930        3.73128342
 C            0.40873935        0.91716092        3.98830052
 C           -0.93319604        0.46008713        3.66313200
 C            0.93610577        1.99329599        3.29755883
 C            2.85747645        0.61365732        2.55131579
 C            2.22513819        1.85835206        2.62681279
 C            3.64008578        0.31654522        1.43655476
 C            2.69173555       -1.93906296        1.41306058
 C            3.63255224       -1.04253261        0.91932345
 C            1.88913958       -2.67799510        0.52778757
 C            0.30342886       -3.14150825        2.35152512
 C            0.82895651       -3.43193398        1.03184083
 C           -1.67069316       -1.70625995        2.78252491
 C           -1.11836795       -2.85137590        2.20214931
 C           -2.72366278       -1.05857980        2.14282331
 C           -1.67112775        1.09169082        2.66132333
 C           -2.74055101        0.39707869        2.11112600
 C            0.06799001        2.74793096        2.41578611
 C           -1.12259830        2.17571639        1.96738503
 C            2.19081743        2.71813729        1.45192766
 C            0.92760912        3.43806615        1.47286223
 C            3.63367156        1.21654879        0.29335072
 C            2.69518667        2.23837144        0.24683737
 C            3.88182491       -0.97651065       -0.50175015
 C            3.87476528        0.42420635       -0.89363354
 C            2.05977973       -2.57467082       -0.86283525
 C            2.99241922       -1.68725168       -1.38897611
 C            1.05079469       -3.01204463       -1.71861431
 C           -0.30744704       -3.73263869        0.18219589
 C           -1.49879149       -3.23409086        0.84905687
 C           -0.18242599       -3.56412126       -1.18324559
 C           -3.18029727       -1.52885783        0.84663700
 C           -2.41224572       -2.45374840        0.14511745
 C           -3.28265261        0.80823636        0.83043170
 C           -3.75114086       -0.38817625        0.15352817
 C           -1.64725784        2.57023979        0.72905255
 C           -2.63483070        1.79956227        0.10174382
 C            0.38223360        3.86618737        0.27668195
 C           -1.02298041        3.60352147        0.03276143
 C            2.01100158        2.50815155       -0.94453632
 C            1.07856398        3.54269329       -0.95454640
 C            2.97015637        0.56809546       -2.01528055
 C            2.56771273       -0.76191191       -2.42879136
 C            2.01164900        1.57012297       -1.98801072
 C            0.70606382       -2.18678571       -2.86621272
 C            1.31419100       -0.94062788       -3.00579917
 C           -1.28549170       -2.98449879       -1.92935034
 C           -2.35245606       -2.39279166       -1.25115716
 C           -0.71997260       -2.32938712       -3.10013135
 C           -3.79282113       -0.39849754       -1.22783740
 C           -3.18237903       -1.50861673       -1.93907035
 C           -2.83169823        1.87121942       -1.28577530
 C           -3.46023180        0.81756658       -1.94838008
 C           -1.21621903        3.71405690       -1.39574145
 C            0.09631995        3.60720401       -2.02003064
 C           -2.08627008        2.76362835       -2.05175994
 C            0.89507274        1.43989246       -2.81498877
 C            0.52680750        0.17813408       -3.29902419
 C            0.03204715        2.51804649       -2.97260274
 C           -1.37313889        2.26594183       -3.21800045
 C           -1.41300152       -1.28472706       -3.69016790
 C           -2.76591581       -1.01480928       -3.24123571
 C           -2.96380136        0.42419340       -3.25600593
 C           -0.73967780       -0.00705134       -3.85861939
 C           -1.74420765        1.04053426       -3.74757082
