   70
C70 / DATE: 7/ 1/2024 / Origin: Program Fullerene / C70 from database
 C            1.30089816       -0.17960083        4.52925819
 C            2.57987390       -0.43075603        3.89331383
 C            2.56355666       -1.79066865        3.38623230
 C            0.45509414       -1.34106728        4.31027847
 C            1.25542112       -2.36155602        3.65881821
 C           -0.76692127       -0.88973964        3.66371081
 C            0.54952397        0.99467965        4.13163324
 C           -0.76982744        0.56022070        3.69636170
 C            1.18925225        1.99165802        3.40693934
 C            3.01084685        0.44369959        2.81427317
 C            2.40278786        1.67920673        2.65752672
 C            3.04018514       -1.76182274        2.01311685
 C            3.24194653       -0.37526145        1.63609215
 C            2.46091116       -2.61059410        1.08182325
 C            0.66295251       -3.13625428        2.67342098
 C            1.43252312       -3.46302250        1.48767026
 C           -1.21161029       -1.54522484        2.51991881
 C           -0.67381243       -2.79318927        2.20709175
 C           -1.88629377       -0.82242969        1.53308287
 C           -1.40132391        1.26034245        2.67404278
 C           -2.10740878        0.55190888        1.69612647
 C            0.38009601        2.85153451        2.56661587
 C           -0.96920998        2.55696848        2.39384277
 C            2.23009787        2.20536702        1.31526034
 C            1.16229398        3.17850996        1.38637859
 C            2.79020585        0.05114541        0.38484743
 C            2.28234576        1.34415542        0.22380452
 C            2.53430598       -2.26225642       -0.26297533
 C            2.56417973       -0.90133471       -0.60805693
 C            2.05710449       -3.19024483       -1.17896460
 C            0.47108056       -3.92187162        0.49939928
 C           -0.80008384       -3.30910421        0.85160537
 C            0.85283015       -3.92105508       -0.83053071
 C           -2.20640079       -1.44441822        0.32444893
 C           -1.47833301       -2.55170395       -0.09822429
 C           -3.02308511       -0.79677966       -0.58546892
 C           -2.83854196        1.26176551        0.73947616
 C           -3.36596663        0.59437816       -0.36448695
 C           -1.64510133        3.28169541        1.42337743
 C           -2.74131960        2.64959696        0.71626399
 C            0.46531023        3.50133828        0.23251624
 C           -0.84254262        3.94432074        0.41334547
 C            1.56289386        1.67174596       -0.92959134
 C            0.80031954        2.84989152       -0.96105600
 C            2.13785476       -0.48185036       -1.87162830
 C            1.55938460        0.78851879       -2.02029603
 C            1.94411765       -2.81420705       -2.57021188
 C            2.05996179       -1.41299290       -2.90637226
 C           -0.13144755       -3.55365210       -1.82810727
 C           -1.18603852       -2.71588994       -1.45838998
 C            0.63184137       -3.25384396       -3.02079033
 C           -2.77409912       -0.98468679       -2.00359851
 C           -1.78177393       -1.87176496       -2.40876615
 C           -3.41114535        1.25011666       -1.66520566
 C           -2.87287771        0.31880130       -2.64986209
 C           -2.89081257        3.36030393       -0.54445064
 C           -1.69267666        4.16603560       -0.73593363
 C           -3.11653238        2.60299354       -1.76109301
 C            0.12985337        3.19670747       -2.12928596
 C           -1.15813501        3.86619426       -2.04416419
 C           -2.13198393        3.03598446       -2.73295689
 C            0.83218956        1.09984658       -3.18225942
 C           -1.87689416        0.72744144       -3.54317549
 C            0.02248341        2.22480763       -3.19206103
 C           -1.39375631        2.03221226       -3.47155882
 C            1.12714612       -1.18679173       -3.98466612
 C            0.12941053       -2.24478576       -3.92164099
 C           -1.13735271       -1.60913554       -3.61650269
 C            0.41608180        0.06708704       -4.00996377
 C           -1.00585368       -0.23162322       -4.04961839
