   70
C70 / DATE: 7/ 1/2024 / Origin: Program Fullerene / C70 from database
 C            1.51063659        0.16021569        5.01526325
 C            0.70976663       -1.04900046        5.02645273
 C            1.45344616       -2.07548699        4.32224538
 C            2.63321395       -0.05843890        4.11535859
 C            2.62053472       -1.44672084        3.72185548
 C            2.56949124        0.95142020        3.07581196
 C            0.69619779        1.22085621        4.44977520
 C            1.45569546        1.82586020        3.38318533
 C           -0.62118771       -0.70806524        4.55382902
 C           -0.60517282        0.67979765        4.11847332
 C           -1.31556539       -1.62857832        3.78689177
 C            0.77525684       -2.83535328        3.28564205
 C           -0.60445358       -2.75259790        3.17900334
 C            2.60601004       -1.75634363        2.30790530
 C            1.57106585       -2.74575902        2.07435574
 C            2.76411603        0.60345201        1.73389488
 C            2.77333984       -0.74890303        1.36042194
 C            2.40686986        1.55916091        0.76678066
 C            0.77214062        2.34063557        2.30021070
 C            1.51877342        2.56533336        1.15807398
 C           -1.17153210        1.02405936        2.88705745
 C           -0.58539384        2.03965452        2.12850025
 C           -2.24221078       -1.13294961        2.78922229
 C           -2.07689161        0.15470084        2.27496626
 C           -1.21637711       -2.99092496        1.88404057
 C           -2.45170147       -2.23118609        1.87191282
 C            0.94313888       -2.75045698        0.82978537
 C           -0.42660652       -3.00866410        0.73098816
 C            2.47245998       -1.06396233        0.04372457
 C            1.57592162       -2.10303995       -0.22579382
 C            2.51902993        1.23282154       -0.59325801
 C            2.70493501       -0.11033930       -0.93235779
 C            2.10000300        2.15752053       -1.56412354
 C            0.93308478        3.36946621        0.20266612
 C            1.37719042        3.27583519       -1.16702113
 C           -1.18645693        2.43119188        0.92977184
 C           -0.51542028        3.39953197        0.18642303
 C           -2.54643445        0.43236113        0.98518088
 C           -2.05252946        1.53764448        0.28032095
 C           -3.02051875       -1.95103480        0.64921175
 C           -3.25022968       -0.55920835        0.30379583
 C           -1.05845791       -2.84420557       -0.50749441
 C           -2.42259684       -2.55055546       -0.52356867
 C            1.05229162       -2.23296181       -1.50867746
 C           -0.29388472       -2.58148656       -1.65215398
 C            2.62447346       -0.52168768       -2.25423568
 C            1.74339817       -1.63372173       -2.56089779
 C            2.08840362        1.80524652       -2.91322510
 C            2.48396872        0.46872231       -3.29515127
 C            0.95498784        2.18754505       -3.74741260
 C            0.27163334        3.73578625       -1.98870259
 C           -0.92903622        3.68432554       -1.16644616
 C           -0.01164882        3.04094443       -3.22958450
 C           -2.32839617        1.67597338       -1.09601743
 C           -1.85391331        2.77968259       -1.80263528
 C           -1.39864467        2.60330604       -3.17089056
 C           -3.34181182       -0.50901194       -1.14234186
 C           -2.97714823       -1.82918821       -1.64682928
 C           -2.89447997        0.61932114       -1.81608609
 C           -0.94661985       -2.36836464       -2.87070933
 C           -2.33016891       -1.91928886       -2.86572346
 C            1.06876072       -1.33899271       -3.81165500
 C            1.52213457       -0.03174548       -4.26348624
 C            0.54721435        1.01858770       -4.50986653
 C           -0.26546710       -1.68323990       -3.95776368
 C           -1.78697984        1.46134612       -3.85372016
 C           -2.67509661        0.52222121       -3.19152543
 C           -2.42600371       -0.78738876       -3.76525753
 C           -0.80029699        0.68698787       -4.59606400
 C           -1.19025090       -0.71266224       -4.52232235
