   70
C70 / DATE: 7/ 1/2024 / Origin: Program Fullerene / C70 from database
 C            1.21653667        0.24528829        4.72094725
 C            2.46422918        0.03379953        4.01699441
 C            2.50315968       -1.36174386        3.62306112
 C            0.39662894       -0.94474593        4.53357095
 C            1.15038883       -1.88020152        3.72581092
 C           -0.90315691       -0.51727094        4.06383164
 C            0.41139438        1.39289849        4.36188492
 C           -0.94963649        0.92792697        4.15442840
 C            0.77513144        2.17310882        3.19278612
 C            2.75307919        0.82253037        2.82948993
 C            1.84641411        1.78310432        2.38442922
 C            3.16846634       -1.43481695        2.33682709
 C            3.35937289       -0.07088230        1.86000345
 C            2.72990323       -2.39002944        1.43308392
 C            0.56194163       -2.43720929        2.59166771
 C            1.39705915       -2.95206555        1.60264638
 C           -1.44676537       -1.10715644        2.93223395
 C           -0.76963472       -2.14165230        2.27344986
 C           -2.41968071       -0.39764194        2.23503734
 C           -1.50156059        1.66615354        3.02729465
 C           -0.46851302        2.57139447        2.55854373
 C           -2.25690198        0.97933071        2.07720271
 C           -0.44460913        2.88450015        1.21137257
 C            1.81839501        2.11944067        1.02982411
 C            0.78945076        2.93931825        0.57093578
 C            3.19741366        0.19577149        0.50351591
 C            2.57952331        1.38797670        0.10859816
 C            2.91038265       -2.13488090        0.01831644
 C            3.28399382       -0.86303065       -0.40214121
 C            0.85922651       -3.22769702        0.28158857
 C            1.84598992       -2.81776687       -0.69922999
 C           -1.32234119       -2.64442160        1.09150423
 C           -0.47595154       -2.97410529        0.02822015
 C           -3.18338625       -1.09029202        1.31266228
 C           -2.65746189       -2.35151116        0.82533764
 C           -3.69553236       -0.37369288        0.16311719
 C           -2.39118884        1.53784832        0.80003729
 C           -1.57999530        2.61945557        0.45015839
 C           -3.09942994        0.83811510       -0.18593327
 C           -1.63695114        3.13231208       -0.83673231
 C            0.83654912        3.41965380       -0.72860969
 C           -0.42071823        3.68718711       -1.40535822
 C            2.51953015        1.70936098       -1.25165391
 C            1.72620598        2.77662751       -1.67672514
 C            3.18787025       -0.59031077       -1.75804364
 C            2.96316997        0.77647290       -2.18466198
 C            1.43164337       -2.28763294       -1.91916390
 C            2.32546323       -1.43786064       -2.56614445
 C           -0.86999266       -2.72013688       -1.28515375
 C            0.05781234       -2.20628526       -2.20719976
 C           -3.17353216       -2.54672920       -0.51648266
 C           -3.96443876       -1.37233370       -0.85183831
 C           -2.22510746       -2.75049010       -1.59109694
 C           -3.69311222       -1.04549569       -2.23125152
 C           -2.70581155       -1.99466885       -2.72349225
 C           -3.00648144        1.21959486       -1.53444064
 C           -2.30373571        2.36938324       -1.87268320
 C           -3.20641153        0.28184466       -2.54577987
 C           -0.30630191        3.21816588       -2.77403326
 C            1.03582045        2.70896306       -2.96061631
 C           -1.43173420        2.34147275       -3.04092624
 C            2.32782787        0.71289076       -3.48923550
 C            1.87986067       -0.65539963       -3.69431344
 C            1.21337716        1.59713914       -3.76729642
 C           -0.38844015       -1.50474356       -3.34454942
 C           -1.74348089       -1.25513182       -3.50778306
 C           -2.18427542        0.12997723       -3.56559113
 C           -1.22769899        1.13404267       -3.71112365
 C            0.46832308       -0.62244055       -3.98814904
 C            0.06243571        0.76942399       -4.11298030
