   70
C70 / DATE: 7/ 1/2024 / Origin: Program Fullerene / C70 from database
 C            1.54095303       -0.00180666        4.62716117
 C            0.70980556       -1.19051937        4.59503398
 C            1.17241487       -2.03757966        3.51066452
 C            2.49236882       -0.09639480        3.53394527
 C            2.28771046       -1.36232410        2.86820120
 C            2.38072301        1.10771333        2.73958816
 C            0.68201682        1.13827803        4.36128168
 C            1.24529555        1.85688491        3.24373276
 C           -0.67271943       -0.76007299        4.58249339
 C           -0.67787883        0.65960940        4.24455350
 C           -1.60088885       -1.58898125        3.97284814
 C            0.22777775       -2.67792458        2.70819267
 C           -1.12119265       -2.64205159        3.08426784
 C            0.56907363       -3.00045370        1.39015199
 C            2.35894842       -1.39939295        1.48496336
 C            1.72496699       -2.44614279        0.82933337
 C            2.52457810        1.01654143        1.35596009
 C            2.68371771       -0.24057448        0.76456485
 C            2.00551856        2.05161817        0.57968917
 C            0.39667769        2.41281791        2.30305702
 C            0.98284462        2.84081866        1.12317994
 C           -1.46853918        1.11225663        3.18541012
 C           -0.95469978        2.03498188        2.26093513
 C           -2.74478364       -0.97299647        3.33021024
 C           -2.61562525        0.39283260        2.85606907
 C           -2.16024620       -2.88205330        2.09284537
 C           -3.12537162       -1.80410026        2.20177014
 C           -0.39464288       -3.57105011        0.56126869
 C           -1.79424361       -3.31105469        0.82748664
 C           -0.22587971       -3.52508361       -0.88012983
 C            2.02403461       -2.65012991       -0.51036897
 C            1.01823461       -3.21035298       -1.39702588
 C            2.78545805       -0.32465626       -0.62765642
 C            2.69736899       -1.58141166       -1.22643405
 C            2.20261796        2.01797606       -0.80232002
 C            2.60495601        0.82355720       -1.40830563
 C            1.72220088        3.06722186       -1.58423338
 C            0.19754359        3.61185328        0.28739754
 C            0.66911224        3.89910019       -1.04795482
 C           -1.68805848        2.30733870        1.09678911
 C           -1.20789440        3.26922166        0.21165711
 C           -3.11317515        0.43227078        1.49172435
 C           -3.33248080       -0.93524621        1.05626571
 C           -2.54776458        1.33133869        0.60163608
 C           -2.31322224       -2.60636769       -0.33608591
 C           -1.40000204       -2.87083219       -1.43711147
 C           -2.84846063       -1.32782885       -0.18727565
 C           -1.23238000       -1.90693989       -2.42663589
 C            1.09271636       -2.48366055       -2.65208515
 C            2.31224749       -1.69289422       -2.62042389
 C           -0.06313709       -1.92420220       -3.19405365
 C            2.61858930        0.72059458       -2.80281164
 C            2.39368073       -0.57218136       -3.42945857
 C            1.40442423        2.83775440       -2.98056907
 C            1.94282155        1.72483513       -3.61041869
 C           -0.46916990        3.79264237       -1.94240767
 C           -1.54277171        3.15697789       -1.19897600
 C           -0.00720882        3.16714996       -3.16517576
 C           -2.48703029        0.99522525       -0.75135367
 C           -2.53153424       -0.35130009       -1.12986872
 C           -1.99599292       -0.73988079       -2.35468616
 C           -2.08705692        1.96518714       -1.67360566
 C           -0.84702066        2.25555333       -3.79077743
 C           -1.90770410        0.20098857       -3.36955913
 C           -1.89378927        1.60696673       -3.00952963
 C            0.07666510       -1.02057384       -4.24323420
 C            1.37250802       -0.39268411       -4.44656828
 C            1.16081867        1.03254650       -4.62122972
 C           -0.93884183       -0.00262075       -4.42798994
 C           -0.26998224        1.26366770       -4.67800883
