   70
C70 / DATE: 7/ 1/2024 / Origin: Program Fullerene / C70 from database
 C            1.55017200       -0.03065600        5.00250533
 C            0.75436816       -1.24773388        4.97239166
 C            1.60285969       -2.29960340        4.46466916
 C            2.69891473       -0.24527027        4.14325331
 C            2.79415677       -1.66760655        3.90689679
 C            2.57011905        0.64208441        2.99989127
 C            0.75432582        1.02664086        4.40785769
 C            1.46102987        1.54282081        3.25232130
 C           -0.48431856       -0.94444822        4.27459848
 C           -0.57441925        0.50310057        4.18611905
 C           -0.89802568       -1.71120365        3.17345415
 C            1.06309968       -3.18913011        3.45520722
 C           -0.20768714       -2.86691612        2.81940249
 C            2.92415094       -2.12925738        2.54247414
 C            2.05036246       -3.27226353        2.39941843
 C            2.72774820        0.14686230        1.70944623
 C            2.96477311       -1.21654997        1.48994953
 C            2.24675948        0.91764244        0.64779242
 C            0.69416384        1.96289756        2.16787406
 C            1.21692045        1.83578717        0.88013510
 C           -1.29209301        1.01828509        3.12527675
 C           -0.69330261        1.98533212        2.31410034
 C           -1.76007153       -1.12360876        2.24265675
 C           -2.19894426        0.16743235        2.51959935
 C           -1.77560573       -1.57276841        0.90867774
 C           -0.07976867       -3.20215860        1.41104358
 C            1.33299664       -3.40205156        1.15046801
 C           -0.82396973       -2.48925067        0.46593633
 C            2.74007973       -1.70769458        0.20946278
 C            1.84406929       -2.76965828        0.03604590
 C            2.50596020        0.49824371       -0.65493957
 C            2.89230566       -0.83229965       -0.85742901
 C            1.99417435        1.24237034       -1.72355153
 C            0.45298376        2.30159315       -0.19271226
 C            0.88116047        2.06962618       -1.50790083
 C           -1.46439903        2.48961341        1.26970063
 C           -0.83326154        2.79229641        0.05680931
 C           -3.10960951        0.75486161        1.66887179
 C           -2.80559017        2.10535907        1.25437296
 C           -2.55104827       -0.88778915       -0.03061378
 C           -3.45440417        0.05229382        0.45479868
 C           -2.12909654       -0.83032684       -1.37133322
 C           -0.32640206       -2.37477118       -0.84122934
 C            1.01381659       -2.71210810       -1.06946709
 C           -1.01168423       -1.58184114       -1.77631613
 C            2.71796524       -1.38603724       -2.11622356
 C            1.61979210       -2.32270610       -2.24914629
 C            2.36145858        0.87800756       -3.01737740
 C            2.68656012       -0.50752008       -3.25988788
 C            1.55836255        1.30658030       -4.13934634
 C            0.13967124        2.57932971       -2.59018266
 C            0.40412393        2.13481887       -3.88512150
 C           -1.58665084        3.30521481       -0.99492661
 C           -1.13033499        3.10710697       -2.35663167
 C           -3.61471251        2.35716986        0.08563040
 C           -4.00594990        1.04998465       -0.43435239
 C           -3.02454505        3.10375650       -0.99996673
 C           -2.78800248        0.01106863       -2.29026245
 C           -2.25637814        2.58916473       -3.13316601
 C           -3.63572887        1.01411949       -1.82556630
 C           -3.34676638        2.38195760       -2.21156858
 C           -0.69191284        1.56447430       -4.64448351
 C           -2.24722522        0.19728654       -3.56100371
 C           -1.99343249        1.56288528       -4.02133353
 C           -0.50063066       -1.44975568       -3.07624391
 C            0.80155771       -1.86431405       -3.34285027
 C            1.67001948       -1.02764494       -4.15398495
 C            1.09464496        0.10798180       -4.83471644
 C           -1.14183279       -0.62654121       -3.99682883
 C           -0.34782203        0.18543431       -4.90844480
