   70
C70 / DATE: 7/ 1/2024 / Origin: Program Fullerene / C70 from database
 C            1.65782285       -0.07175723        4.67107527
 C            0.83473561       -1.26719965        4.68327625
 C            1.43086792       -2.23495315        3.77584883
 C            2.67418728       -0.24574125        3.65090572
 C            2.53192543       -1.57819480        3.09093003
 C            2.60047280        0.88605108        2.73990849
 C            0.81783797        1.03790854        4.26165955
 C            1.43460440        1.66838082        3.10552770
 C           -0.54551173       -0.86326420        4.47112746
 C           -0.54432261        0.55011292        4.12850234
 C           -1.38956279       -1.72170334        3.78218937
 C            0.59450571       -3.07740364        3.05731609
 C           -0.84330897       -2.95228261        3.22832520
 C            0.85045942       -3.29976589        1.64332133
 C            2.67025849       -1.71199106        1.71383137
 C            1.89742043       -2.64426711        1.01172956
 C            2.83988303        0.65159137        1.39052908
 C            3.21097944       -0.63612008        1.01038396
 C            2.24192288        1.48380391        0.43744153
 C            0.60413281        2.12518136        2.09076454
 C            1.10328538        2.21395972        0.78783714
 C           -1.29031666        0.99732719        3.04206659
 C           -0.77386528        2.04464876        2.27921435
 C           -2.31731091       -1.17474469        2.80645568
 C           -2.28948292        0.18438276        2.49271613
 C           -1.46699233       -3.17962654        1.93620089
 C           -0.42290162       -3.36654390        0.95143326
 C           -2.42530954       -2.12271464        1.71438746
 C           -0.54023547       -2.73062266       -0.28334709
 C            1.86473422       -2.55125528       -0.37702296
 C            0.61620370       -2.47360767       -1.01719143
 C            3.57257261       -0.84449345       -0.30856097
 C            2.97367186       -1.97886033       -0.98052241
 C            2.56417232        1.29551590       -0.90949281
 C            3.45648015        0.26796779       -1.22644381
 C            1.76629245        1.87420593       -1.90805847
 C            0.29100328        2.76173935       -0.20577443
 C            0.62892082        2.60686842       -1.55284059
 C           -1.59778375        2.64788898        1.34745777
 C           -0.99368395        3.17827157        0.14175323
 C           -2.91413589        0.59853405        1.31009496
 C           -2.79376417        1.93737955        0.94549169
 C           -2.56163618       -1.60265693        0.43971934
 C           -1.70590664       -2.02318289       -0.58814273
 C           -3.17195771       -0.36262419        0.32459965
 C           -1.83672598       -1.42429468       -1.84508685
 C            0.50302862       -1.88226359       -2.28163046
 C           -0.69997332       -1.25803447       -2.65572795
 C            2.93216091       -1.67496638       -2.39214903
 C            3.45008761       -0.32399803       -2.54706858
 C            1.64967384       -1.71360226       -3.05639130
 C            1.94528056        1.51746708       -3.24817992
 C            2.67602073        0.31321788       -3.58017769
 C            1.68765436       -0.65436538       -4.03628503
 C           -0.72702590       -0.38419400       -3.76415896
 C            0.79133517        1.49143005       -4.11915653
 C            0.47376625        0.08179766       -4.28741844
 C           -0.27529960        3.00687500       -2.54547614
 C           -0.25376078        2.35393477       -3.84573459
 C           -2.03601630        3.22577359       -0.86420368
 C           -3.11665992        2.35594567       -0.40751490
 C           -1.66945066        3.23886711       -2.20083118
 C           -3.58565908        0.02134894       -0.94184667
 C           -2.97743323       -0.65509573       -2.07152817
 C           -3.67781875        1.42959295       -1.27416679
 C           -1.83079804        0.43465183       -3.97910204
 C           -1.59821863        1.86505479       -4.09479459
 C           -2.49110610        2.53657326       -3.17131162
 C           -3.02685036        0.24866834       -3.19534192
 C           -3.44757555        1.55347280       -2.70134107
