   70
C70 / DATE: 7/ 1/2024 / Origin: Program Fullerene / C70 from database
 C            1.44086206       -0.28664335        5.51016510
 C            0.58977245       -1.43261248        5.26161971
 C            1.22565886       -2.22921369        4.22992780
 C            2.57635318       -0.37238765        4.60367061
 C            2.34182769       -1.47792607        3.69486533
 C            2.76582457        0.94185771        4.04469049
 C            0.69252840        0.90086983        5.13959975
 C            1.60277075        1.74746726        4.40518826
 C           -0.66371718       -0.94767585        4.70473088
 C           -0.53296243        0.47486453        4.48262547
 C            0.18819491       -2.61209792        3.30553602
 C           -0.97327895       -1.78018482        3.56118607
 C            0.52536361       -2.77344211        1.97700010
 C            2.39356478       -1.27804123        2.30965136
 C            1.68542848       -2.15702994        1.48684200
 C            2.93366628        1.06601527        2.60996248
 C            2.82265979       -0.05289933        1.77829574
 C            1.12892376        2.36054654        3.18280633
 C            2.20981980        2.25955244        2.23172826
 C           -0.84376556        0.97313030        3.21640356
 C           -0.15251947        2.08431268        2.71606569
 C           -1.58577979       -1.20437784        2.44708883
 C           -1.61295102        0.19123340        2.33775806
 C           -0.53795558       -2.87447116        1.10322563
 C           -1.57394233       -1.95161626        1.26803589
 C           -0.22877366       -3.31259969       -0.16532655
 C            1.83528171       -2.06095604        0.09964481
 C            1.06983570       -2.92499624       -0.67945918
 C            2.65239147        0.19293262        0.40829078
 C            2.25528543       -0.84491165       -0.44900954
 C            1.88370777        2.39861339        0.89823910
 C            2.47351851        1.52063006        0.00505065
 C           -0.44777834        2.50614717        1.42493311
 C            0.61112002        2.86378237        0.58267426
 C           -2.04528699        0.76430117        1.13782988
 C           -1.62665038        2.06023959        0.84718566
 C           -2.20302092       -1.43050074        0.13791153
 C           -2.48455111       -0.06156827        0.09424191
 C           -1.19043597       -3.12099727       -1.22269650
 C           -2.19301882       -2.17591492       -1.04261282
 C            0.91151173       -2.67814582       -2.09762810
 C           -0.42865578       -3.12308824       -2.45580802
 C            2.04491517       -0.57147677       -1.81308686
 C            1.40468690       -1.50142401       -2.64250624
 C            2.32011897        1.80965805       -1.33797380
 C            2.26980101        0.71926021       -2.28461757
 C            0.33722883        3.14195835       -0.75714685
 C            1.28298421        2.75981131       -1.71465533
 C           -2.01554594        2.64734484       -0.34522230
 C           -0.99314143        3.31466648       -1.13019225
 C           -2.96174543        0.51686304       -1.08793407
 C           -2.84140383        1.89232342       -1.26420452
 C           -2.85145036       -1.68716233       -2.16274959
 C           -3.23114323       -0.28874459       -2.19511069
 C           -1.02393375       -2.61891126       -3.60083499
 C           -2.35637213       -2.04928361       -3.48389082
 C            0.95301976       -1.11816899       -3.90787193
 C           -0.24142778       -1.74385938       -4.45431167
 C            1.55007976        1.20271449       -3.45109763
 C            0.87798239        2.43916658       -3.07572893
 C            0.90720972        0.28701116       -4.26682756
 C           -1.37527468        3.21804105       -2.52732141
 C           -2.59004182        2.42217011       -2.59346930
 C           -0.43049647        2.67159700       -3.48099026
 C           -2.97378102        0.21352117       -3.54096116
 C           -2.41915311       -0.87083483       -4.32943673
 C           -1.11721578       -0.69112359       -4.94399427
 C           -0.42872945        0.57608398       -4.76888617
 C           -2.45885361        1.49338196       -3.69723435
 C           -1.12914434        1.67321838       -4.27387319
