   70
C70 / DATE: 7/ 1/2024 / Origin: Program Fullerene / C70 from database
 C            1.65340641        0.08486667        4.60649758
 C            0.84086607       -1.11790576        4.58939670
 C            1.46954418       -2.05808401        3.68453758
 C            2.63218934       -0.02430013        3.53657879
 C            2.53609494       -1.35336264        2.98613973
 C            2.44722635        1.09623844        2.64251378
 C            0.78780860        1.20253567        4.28886049
 C            1.40211593        1.93576660        3.20025190
 C           -0.53353427       -0.73481998        4.33638789
 C           -0.55476198        0.69628865        4.07989792
 C           -1.31235987       -1.57036765        3.55295785
 C            0.67339173       -2.92888716        2.94600654
 C           -0.71948433       -2.76847456        2.97130481
 C            1.26707930       -3.53028001        1.84107509
 C            2.64567774       -1.53133884        1.61207149
 C            2.29670716       -2.78685211        1.13075182
 C            2.44944418        0.88228047        1.26346220
 C            2.55622798       -0.42111110        0.75322181
 C            1.91869418        1.88884560        0.44923605
 C            0.56917115        2.57766346        2.29983517
 C            1.08749419        2.84684663        1.03889275
 C           -1.26588860        1.20065135        2.99395908
 C           -0.81094706        2.38309046        2.41289632
 C           -2.19106904       -0.98866137        2.55225254
 C           -2.08429465        0.35775539        2.23324429
 C           -1.52466262       -3.10849250        1.80346401
 C           -2.33961334       -1.94927062        1.47445447
 C            0.44015476       -4.19671511        0.85546140
 C           -0.96403804       -3.84946269        0.77596053
 C            2.08939900       -2.98160801       -0.28704306
 C            1.03683232       -3.96160024       -0.44785496
 C            2.40230965       -0.61796900       -0.62274386
 C            2.07759179       -1.88159583       -1.12671105
 C            1.92411495        1.72409114       -0.93986166
 C            2.31166868        0.48645646       -1.46978137
 C            1.36663974        2.71799318       -1.76134953
 C            0.38538364        3.73689490        0.24363813
 C            0.53084296        3.67728471       -1.19499035
 C           -1.63307827        2.99813889        1.47785523
 C           -1.02197818        3.91776842        0.53733793
 C           -2.51307612        0.78293382        0.97579562
 C           -2.54146142        2.14919219        0.72610083
 C           -2.39246182       -1.49617151        0.15639595
 C           -2.50486504       -0.11942557       -0.09565387
 C           -1.24874244       -3.47895901       -0.59981674
 C           -0.03039772       -3.65335929       -1.37698451
 C           -2.05771677       -2.37688682       -0.87748921
 C            1.39095484       -1.97826103       -2.33747567
 C            0.21672021       -2.74080463       -2.39676872
 C            2.22521451        0.24936899       -2.83835208
 C            1.61061143       -0.98666596       -3.28512336
 C            1.28239864        2.52682334       -3.13854358
 C            1.78226126        1.30328893       -3.72204340
 C            0.02746804        2.83998402       -3.79900180
 C           -0.78311094        3.91134639       -1.78438011
 C           -1.74968514        3.81823317       -0.71052977
 C           -2.57911732        2.62973698       -0.64208403
 C           -1.08331356        3.26678218       -2.97240697
 C           -2.57983488        0.34889828       -1.41520139
 C           -2.51549086        1.71896199       -1.68956940
 C           -2.03421800        2.16156984       -2.92779691
 C           -2.06635861       -1.91679882       -2.18820676
 C           -0.90167459       -2.19258884       -3.01352796
 C           -2.47827419       -0.55693773       -2.46420533
 C            0.54319190       -0.62990267       -4.20302523
 C            0.73899033        0.75680439       -4.57974039
 C           -0.39363098        1.66057293       -4.53149730
 C           -1.64201016        1.19997380       -3.94519048
 C           -0.73978631       -1.09507390       -3.94657060
 C           -1.82495097       -0.15293324       -3.69717290
