   70
C70 / DATE: 7/ 1/2024 / Origin: Program Fullerene / C70 from database
 C            1.29361960       -0.09377243        3.96875913
 C            2.35134878       -0.29255344        2.99176827
 C            2.25058357       -1.65532600        2.51212407
 C            0.43304257       -1.26484149        3.94069991
 C            1.00657322       -2.21363765        3.02154195
 C           -0.91715857       -0.82199006        3.70270094
 C            0.45301585        1.08497349        3.85797761
 C           -0.91431644        0.63254755        3.65931497
 C            0.91825121        2.15972780        3.11936865
 C            2.63335741        0.72483938        2.09034469
 C            2.14465791        2.00566537        2.35310458
 C            3.07910659        0.40232963        0.80648611
 C            2.62088163       -1.95412215        1.20593565
 C            3.07368404       -0.92956075        0.36573137
 C            2.10545526       -3.12596711        0.64976854
 C            0.18278805       -2.90093485        2.13807564
 C            0.83770224       -3.63236420        1.15369263
 C           -1.71765108       -1.50473179        2.79387488
 C           -1.14382521       -2.46201510        1.92700795
 C           -2.89561989       -0.86201882        2.43217866
 C           -1.74367977        1.27117170        2.73599754
 C           -2.88620559        0.59009894        2.33188828
 C           -0.01308893        2.88493801        2.27750492
 C           -1.22428783        2.28852247        1.92609811
 C            2.11774728        3.00347273        1.29791952
 C            0.77680060        3.57200865        1.26987980
 C            3.37634204        1.43134858       -0.08779072
 C            2.78525986        2.74316172        0.11031171
 C            3.39379034        1.16984220       -1.51546494
 C            3.32915460       -1.21422825       -0.97586814
 C            3.33564518       -0.14221403       -1.95669811
 C            2.13108432       -3.33196177       -0.78922082
 C            2.67652200       -2.34952100       -1.59816553
 C            0.09233523       -4.16008218        0.03935384
 C            0.85739193       -3.91468496       -1.17194710
 C           -1.88731070       -2.96033118        0.83338196
 C           -1.24457942       -3.66925620       -0.17450323
 C           -3.68727109       -1.38083299        1.34676301
 C           -3.08101650       -2.34837662        0.46806198
 C           -3.53275237        0.95034816        1.08707241
 C           -4.13223592       -0.25594286        0.54089318
 C           -1.79972407        2.56801059        0.67750869
 C           -2.89980921        1.83569977        0.22525958
 C            0.18617635        3.89162092        0.05804244
 C           -1.17984068        3.46808579       -0.18998773
 C            2.20469929        3.16553588       -1.15482854
 C            2.58732482        2.19181815       -2.16573950
 C            0.93427587        3.73145903       -1.17984321
 C            1.68625148        1.83438231       -3.16332644
 C            2.41049740       -0.51180153       -3.01955144
 C            1.88234979       -1.82619514       -2.69834352
 C            1.55890564        0.44052939       -3.55953798
 C            0.00614086       -3.18743610       -2.09893684
 C           -1.32794553       -3.16119229       -1.53600949
 C            0.50441581       -2.04835196       -2.71650947
 C           -3.21596588       -1.86493462       -0.89782655
 C           -3.89838586       -0.58189968       -0.85460977
 C           -2.15808790       -2.07405546       -1.78403341
 C           -3.14256412        1.72428704       -1.14479245
 C           -3.48437608        0.42743619       -1.70721119
 C           -1.33256655        3.29855365       -1.62434832
 C           -0.00816582        3.35749639       -2.22312817
 C            0.35758395        2.42638113       -3.18962746
 C           -2.26316618        2.38374907       -2.09428688
 C            0.14269159        0.13540815       -3.66297568
 C           -0.36339836       -0.99887445       -3.02717876
 C           -1.68775128       -1.01077787       -2.56438111
 C           -2.48042552        0.12800781       -2.70946058
 C           -0.58215946        1.39103678       -3.59288337
 C           -1.87212229        1.39229262       -3.08737671
