   70
C70 / DATE: 7/ 1/2024 / Origin: Program Fullerene / C70 from database
 C            1.15125168        0.03759089        4.67308948
 C            2.41798908       -0.35111825        4.11005614
 C            2.28024087       -1.73091021        3.65516909
 C            0.32879668       -1.15877541        4.68719855
 C            0.86931244       -2.02853327        3.66403934
 C           -1.03113379       -0.71620259        4.54357287
 C            0.37844144        1.04514832        3.97764701
 C           -0.99633139        0.71751292        4.27043009
 C            0.72781917        1.38744153        2.66968614
 C            2.91710082        0.38934859        2.97278638
 C            2.04587992        1.19162973        2.22908306
 C            2.98500754       -1.81959919        2.40181968
 C            3.72208873       -0.57524127        2.26339556
 C            2.31988548       -2.30846249        1.28163054
 C            0.18967051       -2.15813839        2.44587034
 C            0.91416834       -2.25241420        1.24530164
 C           -1.82284334       -1.29333292        3.48350970
 C           -1.19228178       -1.93662400        2.40955410
 C           -1.99890038        0.96181297        3.25581226
 C           -2.77861017       -0.25742519        3.18054671
 C           -0.27169641        1.72435219        1.74525433
 C           -1.63276906        1.57039364        2.05637174
 C            0.08824677        2.09506599        0.45349611
 C            2.37856237        1.46051834        0.89759820
 C            1.41086645        1.95402404        0.02228739
 C            4.15572510       -0.24113316        0.99809872
 C            3.55907390        0.92921926        0.37116078
 C            3.03846303       -2.26579275        0.09409178
 C            4.11647139       -1.29297168        0.00330166
 C            2.33967324       -2.25319479       -1.17292730
 C            0.24017948       -2.13433446        0.01627000
 C            0.95346826       -2.13658004       -1.18879676
 C           -1.87669027       -1.98540434        1.19174651
 C           -1.15194677       -1.98599979       -0.01129390
 C           -3.54872765       -0.43619537        2.05818864
 C           -3.20293422       -1.55034236        1.19847534
 C           -2.57225480        1.54201862        1.01738912
 C           -3.66717711        0.68375364        1.15299848
 C           -0.90360157        2.45896718       -0.45234423
 C           -2.21424505        2.01299088       -0.25266644
 C           -0.52714635        3.00696159       -1.67015101
 C            1.72275603        2.10440368       -1.33399683
 C            0.80354583        2.72565548       -2.17567606
 C            3.67569807        0.74236265       -1.06455283
 C            4.02532611       -0.65124403       -1.28738888
 C            3.13089547       -1.45018039       -2.09675658
 C            2.72157900        1.30831346       -1.89942929
 C            2.46712475       -0.80016263       -3.11861732
 C            2.45675270        0.65467830       -3.10203316
 C            0.33006428       -1.72318264       -2.36804967
 C            1.10498614       -1.18877511       -3.39780881
 C           -1.80216081       -1.78354787       -1.24317366
 C           -1.04903098       -1.53706548       -2.39268968
 C           -3.88087726       -1.29207047       -0.04914744
 C           -4.26959069        0.11505610       -0.02713876
 C           -3.16589918       -1.50364009       -1.28288316
 C           -3.05185434        1.75912597       -1.35523091
 C           -3.91331361        0.66920318       -1.30640651
 C           -3.63377680       -0.45957582       -2.17248330
 C           -1.44736158        2.94092777       -2.78358468
 C           -2.66152704        2.16950945       -2.62563757
 C            0.66087956        2.24286061       -3.54081381
 C            1.32450113        1.07833310       -3.90429378
 C            0.55727722       -0.12563289       -4.21643292
 C           -0.72519513        2.41315339       -3.93094214
 C           -1.63730047       -0.88632870       -3.48636283
 C           -2.91310215       -0.21102308       -3.32467146
 C           -2.70030969        1.18025853       -3.69201978
 C           -0.81866364       -0.04904434       -4.34796112
 C           -1.45051549        1.25760767       -4.42256493
