   70
C70 / DATE: 7/ 1/2024 / Origin: Program Fullerene / C70 from database
 C            1.56518484        0.08107512        4.97614699
 C            0.77713326       -1.13759445        5.01558080
 C            1.49892410       -2.15606625        4.27695832
 C            2.66970456       -0.13695266        4.05724621
 C            2.67123708       -1.53043260        3.68157514
 C            2.56615484        0.84929059        3.00349735
 C            0.72863877        1.13246441        4.42062434
 C            1.40241432        1.67617882        3.26485233
 C           -0.57461877       -0.80660513        4.60372333
 C           -0.60156471        0.60159854        4.23333059
 C           -1.28290267       -1.70986483        3.81927067
 C            0.80466485       -2.88546829        3.22843985
 C           -0.57242788       -2.76338611        3.10127358
 C            2.67898903       -1.85903099        2.26830348
 C            1.62598702       -2.82525381        2.03389999
 C            2.80769500        0.48782843        1.68156902
 C            2.87232431       -0.86179712        1.30919061
 C            2.41911605        1.39694531        0.71126392
 C            0.64319777        2.07293137        2.16908668
 C            1.29729374        2.19459375        0.95208737
 C           -1.31854215        0.97671255        3.10021136
 C           -0.73519390        1.83883487        2.15250438
 C           -2.30405842       -1.19495772        2.92544426
 C           -2.39632482        0.17830785        2.72107429
 C           -1.16837145       -2.87693913        1.77970732
 C           -2.36899255       -2.07010441        1.76511067
 C            1.03122069       -2.82013387        0.77966536
 C           -0.36252571       -2.87726818        0.65212290
 C            2.59384074       -1.19004039       -0.02604854
 C            1.76858582       -2.29278105       -0.27376774
 C            2.76285610        1.13228467       -0.60104779
 C            2.73650180       -0.20314886       -1.01203061
 C            2.50910673        2.13926434       -1.51692738
 C            0.59967582        2.71609817       -0.13222735
 C            1.31427670        2.93567613       -1.30584685
 C           -1.46464095        2.17659233        1.00342959
 C           -0.78751109        2.53745478       -0.17906034
 C           -3.20071068        0.61030769        1.68088540
 C           -2.80105853        1.79685909        0.95571712
 C           -2.81486384       -1.52136487        0.56506106
 C           -3.57873229       -0.36549963        0.67535312
 C           -0.94035729       -2.56222433       -0.57826709
 C           -2.08987184       -1.75688538       -0.61880984
 C            1.28844210       -2.51279591       -1.55232894
 C           -0.14402756       -2.68681184       -1.70914919
 C            2.46306115       -0.52022746       -2.35097361
 C            1.75587718       -1.68252598       -2.63999398
 C            2.61845501        1.84904254       -2.92586643
 C            2.56376990        0.46340147       -3.33406683
 C            0.61195903        3.00288563       -2.56849595
 C            1.54063222        2.55333426       -3.59656107
 C           -1.45534765        2.55163665       -1.42060258
 C           -0.72198194        2.61520312       -2.60972848
 C           -3.49079661        1.74660264       -0.31223354
 C           -3.93175286        0.37046891       -0.51086330
 C           -2.78113608        2.13511397       -1.50731642
 C           -2.43974814       -1.08444022       -1.80777885
 C           -3.39302464       -0.06561149       -1.77691084
 C           -3.12879814        1.15147517       -2.51409936
 C           -0.53493620       -2.04068761       -2.94334013
 C            0.69090978       -1.65163535       -3.62819002
 C           -1.63314712       -1.18961741       -2.94800346
 C            1.69724813        0.39622173       -4.50197725
 C            1.06163158        1.69649280       -4.66085039
 C            0.66023200       -0.62072322       -4.55486898
 C           -1.24868616        2.02735014       -3.76538262
 C           -2.32434928        1.06568098       -3.63057365
 C           -1.74085780       -0.22422710       -3.95229381
 C           -0.36360912        1.48131097       -4.77983904
 C           -0.60147318        0.04558385       -4.81788516
