   70
C70 / DATE: 7/ 1/2024 / Origin: Program Fullerene / C70 from database
 C            1.49873366        0.02625007        4.65251622
 C            0.69519726       -1.16989818        4.48843136
 C            1.21067154       -1.91369262        3.35228261
 C            2.52740759        0.00919107        3.62968774
 C            2.37236710       -1.19816914        2.85010875
 C            2.46934901        1.27036156        2.92721939
 C            0.63929343        1.16836103        4.38871740
 C            1.25233810        1.94397046        3.33671713
 C           -0.69104093       -0.75788006        4.45629455
 C           -0.70271841        0.67476300        4.17840456
 C           -1.58129875       -1.56239149        3.76663758
 C            0.30284817       -2.45705371        2.43980466
 C           -1.04899093       -2.50405125        2.78504694
 C            0.67446356       -2.57317533        1.09416069
 C            2.54628418       -1.12091429        1.47787433
 C            1.91303010       -2.06946092        0.69052576
 C            2.76850696        1.29082294        1.57170168
 C            2.96253393        0.08120525        0.88902964
 C            2.33155595        2.39122353        0.84510825
 C            0.45804046        2.47975203        2.33198128
 C            1.11967859        2.99120460        1.21983284
 C           -1.44808781        1.15535819        3.09881178
 C           -0.86850038        2.04093444        2.17516340
 C           -2.73179871       -0.92284436        3.16288704
 C           -2.60229014        0.46042609        2.74230211
 C           -2.04560097       -2.65824670        1.74284613
 C           -3.10826726       -1.70561943        2.00397093
 C           -0.27913701       -2.93453678        0.13131347
 C           -1.63794158       -2.81309566        0.42693783
 C            0.10083345       -3.08765685       -1.20897575
 C            2.30764513       -2.18112237       -0.62867460
 C            1.39958638       -2.76090136       -1.59715332
 C            3.18743556        0.11133224       -0.49647535
 C            2.97124848       -1.04589955       -1.24724514
 C            2.83056688        2.53872061       -0.44094437
 C            3.21961877        1.34079458       -1.16062381
 C            2.18705214        3.44084208       -1.37390870
 C            0.35695501        3.68262452        0.28920044
 C            0.91056090        4.01052278       -1.00860305
 C           -1.54168031        2.31799508        0.97557669
 C           -1.01695259        3.26564812        0.10330120
 C           -3.10824263        0.55425921        1.38292595
 C           -3.46551281       -0.78360408        0.94198850
 C           -2.47797930        1.40805692        0.48737791
 C           -2.49130629       -2.35381562       -0.56847214
 C           -3.15751935       -1.14381873       -0.36165467
 C           -0.89086868       -3.19649866       -2.18698996
 C           -2.23860944       -2.75740961       -1.86836072
 C           -0.59870208       -2.76732874       -3.54508869
 C            1.63693376       -2.09302816       -2.87072845
 C            2.45989552       -0.92707484       -2.60307853
 C            0.59899194       -1.98625054       -3.78169660
 C            2.67023423        1.43983830       -2.50668705
 C            2.01833658        2.73050165       -2.62996663
 C            2.05838275        0.32218383       -3.06223302
 C           -0.06128755        3.61337619       -2.01316255
 C           -1.23096507        3.09528309       -1.32308923
 C            0.61117670        2.75533346       -2.97211884
 C           -2.51210001        1.11126199       -0.88116632
 C           -3.00369503       -0.12878423       -1.30334821
 C           -1.80356750        1.91330932       -1.77872339
 C           -2.68841076       -1.89671410       -2.94437653
 C           -1.73208750       -2.00044237       -4.02981084
 C           -2.88945572       -0.49181233       -2.64264658
 C            0.18682687       -0.65909060       -4.21644058
 C            0.79878207        0.45896433       -3.65534448
 C            0.00093139        1.56070139       -3.32965274
 C           -1.33050236        1.35441871       -2.96484369
 C           -1.26044502       -0.66143808       -4.32732723
 C           -2.00873123        0.27392811       -3.50707495
