   70
C70 / DATE: 7/ 1/2024 / Origin: Program Fullerene / C70 from database
 C            1.39377949       -0.08694774        4.10373367
 C            2.48231367       -0.25118967        3.15610011
 C            2.37622028       -1.58426477        2.58315755
 C            0.53436052       -1.25546575        4.00583034
 C            1.12173334       -2.16247622        3.04282202
 C           -0.82160098       -0.79891941        3.78300187
 C            0.55659081        1.09290065        4.01493989
 C           -0.82543232        0.64908305        3.91236955
 C            0.99461433        2.16708895        3.25192987
 C            2.85255509        0.81100560        2.33668981
 C            2.21967393        2.04621779        2.47079396
 C            3.56733065        0.53460028        1.17742843
 C            2.78762327       -1.79911899        1.26721942
 C            3.52492520       -0.80996781        0.61976255
 C            2.13900681       -2.77011483        0.50359172
 C            0.29987035       -2.79368389        2.11978171
 C            0.89929733       -3.34720294        0.99374470
 C           -1.57808683       -1.39348707        2.77655425
 C           -1.07212739       -2.51773434        2.10371002
 C           -2.68349526       -0.70119683        2.26643165
 C           -1.73479578        1.38667904        3.16563494
 C           -2.71798967        0.68658496        2.35968500
 C            0.04067511        2.93987366        2.47054096
 C           -1.28521358        2.54071546        2.40206816
 C            2.09000888        2.92202122        1.31683104
 C            0.70908185        3.37225197        1.25753076
 C            3.55722445        1.48057244        0.07044414
 C            2.73800747        2.61008464        0.12599416
 C            3.43778035       -0.68451701       -0.82618567
 C            3.66875121        0.70867616       -1.16225644
 C            1.99558195       -2.58176837       -0.93406129
 C            2.47599814       -1.41705073       -1.51599401
 C            0.09026857       -3.70565543       -0.15758407
 C            0.69503336       -3.09151140       -1.32696055
 C           -1.87872825       -3.19392824        1.19325501
 C           -1.28745517       -3.70023747       -0.03498590
 C           -3.47124870       -1.28969575        1.28558981
 C           -3.17355708       -2.63959467        0.85931500
 C           -3.79660967       -0.50665759        0.10283028
 C           -2.94172146        1.45877899        1.14813315
 C           -1.94695006        2.50952328        1.10658743
 C           -3.26401507        0.77941168       -0.01845310
 C            0.04406494        3.32764845        0.03502196
 C           -1.20111444        2.69773754       -0.05254200
 C            2.22458023        3.14587254       -1.05332706
 C            0.80949379        3.48649348       -1.10948359
 C            3.13591850        1.21290188       -2.33698199
 C            2.59032242        2.55471585       -2.32575130
 C            1.76514505       -0.82019512       -2.56124833
 C            2.23082617        0.37776056       -3.10964940
 C           -0.09085848       -2.34543220       -2.19891865
 C            0.50374489       -1.30828167       -2.92915081
 C           -2.08799774       -3.21029575       -1.14206937
 C           -3.32760268       -2.69797006       -0.58471644
 C           -3.81071600       -1.40559796       -1.04047047
 C           -1.48519128       -2.50629907       -2.18365618
 C           -3.36263470       -0.93309345       -2.26300811
 C           -2.29144260       -1.65329800       -2.93268194
 C           -2.69460415        1.18153020       -1.23075886
 C           -1.59494505        2.06182523       -1.23947945
 C           -3.03435284        0.47321688       -2.38116176
 C            0.28902758        3.04148764       -2.38481802
 C            1.41324932        2.56561727       -3.17525159
 C            1.30730486        1.26193724       -3.80378420
 C           -0.90149313        2.32448669       -2.43236525
 C           -0.24104586       -0.61264972       -3.87742708
 C           -1.68239477       -0.72876687       -3.86209955
 C           -2.21615113        0.59526509       -3.56571638
 C            0.03895566        0.79135366       -4.09368541
 C           -1.09936771        1.50834678       -3.54237066
