   70
C70 / DATE: 7/ 1/2024 / Origin: Program Fullerene / C70 from database
 C            1.45508590       -0.03363629        5.09300075
 C            0.58869654       -1.18312374        5.26695151
 C            1.17046297       -2.28079602        4.52164728
 C            2.50124912       -0.39632592        4.14807436
 C            2.29454201       -1.76830142        3.75167129
 C            2.52270668        0.61029376        3.11572536
 C            0.66817260        1.01650845        4.47581130
 C            1.45761682        1.55729719        3.39202875
 C           -0.69073914       -0.87937658        4.64568870
 C           -0.63463724        0.47893435        4.14055375
 C            0.09304916       -2.91905439        3.79181349
 C           -0.98998952       -1.94730371        3.70987761
 C            0.43783538       -3.59639280        2.63618118
 C            2.36898718       -2.11527375        2.40253102
 C            1.73300654       -3.29951597        2.04308112
 C            2.70568659        0.22897151        1.79012408
 C            2.58713849       -1.12174767        1.42173938
 C            2.45183932        1.19864755        0.82648401
 C            0.79081871        2.06831130        2.29035977
 C            1.53009765        2.20546308        1.12764213
 C           -1.12578526        0.73928636        2.86486964
 C           -0.56835440        1.79206333        2.13951165
 C           -1.50285976       -1.61289856        2.45639360
 C           -1.78241824       -0.27204393        2.16193303
 C           -0.50068373       -3.59539953        1.53420263
 C           -1.39083745       -2.53117372        1.40915305
 C            1.65520345       -3.67217043        0.65202908
 C            0.26351764       -3.99752120        0.37610167
 C            2.50375944       -1.44700555        0.05050540
 C            2.07647602       -2.71417325       -0.34347190
 C            2.69007945        0.89144213       -0.50366465
 C            2.49204667       -0.42874295       -0.91392326
 C            2.57494106        1.92525979       -1.42604213
 C            0.94581570        2.90816976        0.08283337
 C            1.66310526        3.00591291       -1.10322586
 C           -1.16178990        2.14390843        0.92960938
 C           -0.44808197        2.96375856        0.05570667
 C           -2.33970304        0.04088609        0.92222436
 C           -2.17661434        1.33466831        0.41428207
 C           -1.85836781       -2.16671869        0.14503815
 C           -2.61807873       -1.00162729        0.04234695
 C           -0.07162279       -3.40306686       -0.89534344
 C            1.13272220       -2.81806267       -1.44063965
 C           -1.23616040       -2.66522038       -1.01045635
 C            1.91021257       -0.69189906       -2.16560072
 C            0.98985708       -1.72476331       -2.28079844
 C            2.39622949        1.60178597       -2.82342184
 C            1.91065316        0.28207733       -3.15306797
 C            0.99564598        3.42179652       -2.32318280
 C            1.48434345        2.57597153       -3.39897412
 C           -1.10409594        3.46404350       -1.06128252
 C           -0.35417563        3.74094526       -2.27720099
 C           -2.76107760        1.67304780       -0.81030396
 C           -2.36478203        2.85489883       -1.44379322
 C           -3.20316339       -0.70429042       -1.18201099
 C           -3.43982271        0.68495976       -1.52409385
 C           -1.41118234       -1.96274926       -2.19451479
 C           -0.26932938       -1.44352567       -2.82608775
 C           -2.62933746       -1.32723529       -2.35663861
 C            0.72028796        0.43504616       -3.97683458
 C            0.52623901        1.85915285       -4.22188000
 C           -0.38401935       -0.38794001       -3.74315724
 C           -1.20143248        3.39552403       -3.40856547
 C           -2.49969981        3.00698141       -2.88425206
 C           -0.76497989        2.35971521       -4.33401017
 C           -3.51073708        0.73962925       -2.97637572
 C           -2.81624154       -0.43457332       -3.47613104
 C           -1.64181680        0.02353746       -4.18351831
 C           -2.97217944        1.88929127       -3.67111259
 C           -1.86333067        1.42546263       -4.49415058
