   70
C70 / DATE: 7/ 1/2024 / Origin: Program Fullerene / C70 from database
 C            1.07458404       -0.14723351        4.67677624
 C            2.33009665       -0.40150735        4.00636348
 C            2.22973167       -1.69897771        3.35894724
 C            0.23103811       -1.31727289        4.48157588
 C            0.85074174       -2.12857534        3.45315820
 C           -1.11802526       -0.84833121        4.27147845
 C            0.29933449        1.01347764        4.28025826
 C           -1.08793375        0.60586081        4.31367364
 C            0.73530151        1.80888205        3.21930940
 C            2.78284288        0.54378481        3.00712301
 C            2.06487698        1.71055432        2.77246986
 C            2.81515593       -1.57902823        2.03787393
 C            3.26031884       -0.20928916        1.85936425
 C            2.18729067       -2.19065284        0.96891949
 C            0.16833289       -2.40523272        2.26853526
 C            0.91311645       -2.74411147        1.13839671
 C           -1.80400806       -1.22845294        3.05226572
 C           -1.15756901       -1.99649649        2.09080343
 C           -1.96486256        1.08545724        3.26829097
 C           -2.55413599       -0.07275592        2.61190895
 C           -0.21032001        2.53602038        2.47618885
 C           -1.55891093        2.14996193        2.47323069
 C            0.22423874        3.50509255        1.57457487
 C            2.47286488        2.46490402        1.68103567
 C            1.61933157        3.52548118        1.19550634
 C            3.16895918        0.37761578        0.59221102
 C            3.02611124        1.76344332        0.52969227
 C            2.55561972       -1.77471032       -0.30012775
 C            2.78143181       -0.41095040       -0.50504877
 C            2.15613012       -2.57073329       -1.35882383
 C            0.24264441       -3.19936777        0.00262233
 C            1.02106754       -3.44059631       -1.12864791
 C           -1.68598940       -2.01614353        0.80396460
 C           -1.10848136       -2.85870199       -0.14123983
 C           -2.89307533        0.03787247        1.26602025
 C           -2.53723366       -0.98464266        0.38107958
 C           -2.34313271        2.41774729        1.35574389
 C           -3.08327220        1.31679325        0.75898259
 C           -0.55270816        3.76891967        0.37546456
 C           -1.83433793        3.25396891        0.28280894
 C            1.68952808        3.52183003       -0.25600575
 C            2.47717304        2.37313121       -0.66392696
 C            0.33697710        3.64691354       -0.76838029
 C            2.29671114        0.19930003       -1.67311761
 C            1.97976813        1.55769391       -1.66682863
 C            1.97431831       -1.97199068       -2.66246101
 C            1.89096586       -0.58750783       -2.75799944
 C            0.39399110       -3.69154792       -2.40864491
 C            1.01648508       -2.80079814       -3.37733005
 C           -1.75715858       -3.01328624       -1.36352734
 C           -1.03764748       -3.53492483       -2.50991866
 C           -2.83590857       -0.85161593       -0.98071762
 C           -2.61947473       -1.94029309       -1.82431999
 C           -3.10562564        1.51831523       -0.67525147
 C           -2.27957409        2.67709852       -0.97466344
 C           -3.03762243        0.42167920       -1.52681792
 C           -0.04604303        2.85124999       -1.84586014
 C            0.90955318        2.01195673       -2.43107387
 C           -1.40755486        2.60421100       -2.05625620
 C            1.11272423       -0.01819582       -3.76910450
 C            0.59747496        1.32965682       -3.59605585
 C           -0.03808927       -2.15949403       -4.13701987
 C           -1.31044768       -2.66498810       -3.64033661
 C           -2.34239317       -1.72203556       -3.23639904
 C            0.07915384       -0.80784734       -4.43033816
 C           -2.67077215        0.67102567       -2.84767191
 C           -1.79011543        1.79728924       -3.12278596
 C           -0.77600568        1.34387894       -4.05038719
 C           -2.29202029       -0.42391577       -3.72121616
 C           -1.12553669        0.00113764       -4.47831420
