   70
C70 / DATE: 7/ 1/2024 / Origin: Program Fullerene / C70 from database
 C            1.38068876       -0.05315156        4.06525688
 C            2.59964204       -0.24527470        3.29855268
 C            2.61024710       -1.63260229        2.85143062
 C            0.54300792       -1.22320712        3.86575129
 C            1.26311673       -2.14736670        3.00942989
 C           -0.76711048       -0.76839325        3.43900952
 C            0.57184233        1.12307356        3.81452084
 C           -0.75358481        0.68304016        3.40614041
 C            1.14870481        2.19498260        3.15650755
 C            3.04576708        0.76767980        2.44599853
 C            2.41678060        2.01302441        2.45873255
 C            3.83852688        0.43862595        1.34788145
 C            3.33016793       -1.97700858        1.71933450
 C            4.12828624       -0.95573814        1.06974891
 C            2.68021360       -2.75828137        0.67807699
 C            0.59879536       -2.68556473        1.91167816
 C            1.31342595       -3.03360906        0.75930591
 C           -1.40216630       -1.44139736        2.40794794
 C           -0.78753705       -2.56388881        1.84620076
 C           -2.37122752       -0.76095221        1.67754336
 C           -1.40869353        1.34675914        2.36600022
 C           -2.25816276        0.62284173        1.51652587
 C            0.30966460        3.03795039        2.32480315
 C           -0.98543126        2.62823105        2.00483698
 C            2.34373974        2.77083948        1.21982380
 C            1.15489620        3.59844292        1.28228868
 C            3.59730212        1.10466006        0.07497089
 C            2.67597076        2.13834334        0.02655701
 C            4.02816464       -1.15299578       -0.36557941
 C            3.24799002       -2.35291598       -0.59761063
 C            3.57576123        0.09343421       -0.96166237
 C            2.43887242       -2.39273283       -1.72033181
 C            0.62019594       -3.39223061       -0.40269187
 C            1.17347561       -3.09909272       -1.64577961
 C           -1.46591998       -3.28094008        0.87225667
 C           -0.74520219       -3.65186433       -0.33150764
 C           -3.19570974       -1.49096278        0.83373781
 C           -2.79221943       -2.83923345        0.48216194
 C           -3.72453267       -0.86119447       -0.35889097
 C           -2.88905521        1.25811867        0.43852051
 C           -3.50715390        0.49904166       -0.56175541
 C           -1.65855527        3.31058768        0.99858346
 C           -2.66371620        2.61517533        0.21504156
 C            0.55959360        3.99673750        0.09701572
 C           -0.88275235        4.13343309        0.08558181
 C            1.80015362        2.22350818       -1.05721826
 C            0.93901393        3.31062737       -1.13096890
 C            2.51639548        0.06130672       -1.86448592
 C            2.19145418       -1.15640361       -2.44962659
 C            1.58195761        1.10422457       -1.87095874
 C            0.32317745       -2.55505964       -2.69033128
 C            0.92491646       -1.30300460       -3.12834257
 C           -1.59354841       -3.33397659       -1.47359583
 C           -2.90395216       -2.97980353       -0.95795955
 C           -3.55557597       -1.79317264       -1.46922547
 C           -1.06108036       -2.62684802       -2.55326832
 C           -3.15264957       -1.30337101       -2.70065630
 C           -1.84133184       -1.67651159       -3.21816224
 C           -3.57673071        1.00421451       -1.85933570
 C           -3.34965758        0.10624186       -2.97608658
 C           -2.57510662        3.10646674       -1.15306613
 C           -1.33529277        3.84945077       -1.25917403
 C           -0.23129639        3.23818484       -1.98146586
 C           -2.87720405        2.23134167       -2.18013261
 C            0.40898789        1.00260731       -2.64428853
 C            0.10572446       -0.20002645       -3.30618483
 C           -1.19974852       -0.46347419       -3.70145671
 C           -2.17832726        0.59515626       -3.68704972
 C           -0.48714015        2.08318221       -2.71248301
 C           -1.80924824        1.86071509       -3.09642144
