   70
C70 / DATE: 7/ 1/2024 / Origin: Program Fullerene / C70 from database
 C            1.56997683       -0.03014960        4.68057451
 C            0.75790134       -1.19912956        4.40744941
 C            1.38419236       -1.95384960        3.33323263
 C            2.70436968       -0.06526364        3.77923167
 C            2.56656511       -1.22528980        2.91307980
 C            2.80538854        1.23959664        3.15867412
 C            0.77900571        1.13971998        4.33767734
 C            1.53406971        1.91692343        3.37040703
 C           -0.60651762       -0.74870906        4.21507895
 C           -0.54902827        0.68427363        3.96895182
 C           -1.42062502       -1.51968649        3.40382672
 C            0.56154628       -2.52460794        2.36834463
 C           -0.80356821       -2.57963279        2.62239278
 C            0.99331607       -2.58470939        1.04305301
 C            2.82330985       -1.07234434        1.55399612
 C            2.09054289       -1.81690251        0.62566200
 C            3.37181672        1.30469457        1.89861359
 C            3.49708948        0.07387831        1.12764274
 C            2.88680309        2.31130238        0.97756151
 C            0.86291408        2.45358103        2.27142031
 C            1.59489383        2.81053570        1.13383060
 C           -1.12958939        1.20085150        2.81264233
 C           -0.51955478        2.28091882        2.17175491
 C           -2.35028421       -0.85159521        2.51249899
 C           -2.10905559        0.46252202        2.13905810
 C           -1.70623383       -2.87203591        1.53026549
 C           -2.70301514       -1.81086371        1.48828085
 C            0.18204123       -3.20504235        0.08590124
 C           -1.19651993       -3.33374176        0.32467824
 C            0.69438887       -3.37196714       -1.20028543
 C            2.30463239       -1.60012104       -0.73755860
 C            1.71371677       -2.45084133       -1.66130457
 C            3.46150749        0.44507897       -0.27860232
 C            3.32156451        1.89130670       -0.33798052
 C            2.74402893       -0.34903534       -1.16570548
 C            2.70463925        2.45536744       -1.43852966
 C            0.93468808        3.33655871        0.01907761
 C            1.59052360        3.35891140       -1.21344851
 C           -1.20320749        2.91659062        1.14691123
 C           -0.44481910        3.52977324        0.07206533
 C           -2.60184309        0.92239145        0.91712579
 C           -2.34412043        2.24260379        0.55550338
 C           -3.12726181       -1.35838344        0.24350296
 C           -3.10021219        0.01532335       -0.03219267
 C           -2.08814006       -3.33731916       -0.74380636
 C           -3.07565020       -2.27286007       -0.80993857
 C           -0.19523218       -3.62657451       -2.31857629
 C           -1.61961740       -3.60577773       -2.08494176
 C            1.25649916       -1.88679166       -2.91878716
 C            0.10091339       -2.64480652       -3.35057766
 C            2.18005304        0.22508908       -2.30942647
 C            2.32020601        1.59004390       -2.53711470
 C            1.25273336       -0.50382070       -3.05459715
 C            0.81897270        3.38499841       -2.44439455
 C            1.28300063        2.28159518       -3.27408152
 C           -1.24961269        3.44411330       -1.13987803
 C           -2.43062345        2.65126807       -0.83466725
 C           -0.62711960        3.31167915       -2.37452002
 C           -3.39308165        0.45528574       -1.32343887
 C           -2.92566630        1.75681657       -1.77050450
 C           -3.14744401       -1.81653539       -2.18792927
 C           -2.20565791       -2.60756130       -2.96476927
 C           -1.12039887       -1.92651414       -3.64974490
 C           -3.23675787       -0.45755547       -2.44058771
 C            0.12296121        0.13983479       -3.58190147
 C            0.12144275        1.52793057       -3.70414167
 C           -1.05840820        2.26907998       -3.29226329
 C           -2.22746130        1.56678375       -3.03512739
 C           -1.09949759       -0.53575196       -3.65132845
 C           -2.27638956        0.14854840       -3.34731570
