   70
C70 / DATE: 7/ 1/2024 / Origin: Program Fullerene / C70 from database
 C            1.22588685        0.09738210        5.00845031
 C            2.47690324        0.13992987        4.27392610
 C            2.56668297       -1.08651110        3.50224543
 C            0.45333811       -1.02741036        4.49985753
 C            1.26376488       -1.71824566        3.51516089
 C           -0.84665245       -0.53130116        4.09507113
 C            0.36762274        1.26545640        5.00397704
 C           -0.94222062        0.85013148        4.52810460
 C            0.76741300        2.43311783        4.23753893
 C            2.74913959        1.24825084        3.36834658
 C            1.90568772        2.35096302        3.33462946
 C            3.14131678       -0.75648483        2.21419826
 C            3.23199137        0.68684964        2.11893619
 C            2.68798921       -1.42975839        1.09020640
 C            0.69564503       -2.05857979        2.29209990
 C            1.53006985       -2.21111955        1.18598283
 C           -1.32747948       -0.86283894        2.83275900
 C           -0.66356610       -1.82810483        2.07457021
 C           -2.17100960        0.03278902        2.18001934
 C           -1.40343964        1.83815410        3.57098376
 C           -0.38076343        2.86084705        3.45777689
 C           -2.00174113        1.40264785        2.39691977
 C            1.49490555        2.89156223        2.05001784
 C            0.08196795        3.21581866        2.12424592
 C            2.88941038        1.27400473        0.90181792
 C            1.97504994        2.33661625        0.86959245
 C            3.00855495       -0.88433958       -0.14739075
 C            3.06445645        0.51110461       -0.25763470
 C            2.76125111       -1.66978113       -1.26561794
 C            0.98803900       -2.74567499        0.01833866
 C            1.76007159       -2.71010161       -1.14174843
 C           -1.20962748       -2.19518673        0.84609731
 C           -0.39953765       -2.85197810       -0.08616197
 C           -2.78166815       -0.37455152        0.99521646
 C           -2.40092040       -1.59211442        0.42991140
 C           -3.33422535        0.60830367        0.17562888
 C           -1.92871702        2.23459258        1.28626408
 C           -0.72562840        2.89411869        1.03429608
 C           -2.75918902        1.93825538        0.22086811
 C            1.25605424        2.57184345       -0.30135090
 C           -0.13005849        2.74932340       -0.22462780
 C            2.80390248        1.12244681       -1.48041089
 C            1.83769161        2.20205397       -1.50357788
 C            2.61190037       -1.05990664       -2.57349508
 C            2.61071631        0.32199331       -2.67706939
 C            1.13415861       -2.88658437       -2.44110074
 C            1.64247221       -1.84579894       -3.32301000
 C           -0.96176320       -3.33651024       -1.26393184
 C           -0.20222886       -3.25515562       -2.50035450
 C           -3.00261737       -2.00556378       -0.75578298
 C           -2.33902939       -3.00539196       -1.56889873
 C           -3.63132113        0.31096555       -1.21569441
 C           -3.56152324       -1.00521201       -1.64985293
 C           -2.30117619        2.23852168       -1.11886181
 C           -0.94187791        2.45707944       -1.32902506
 C           -3.04121868        1.37250963       -2.01966327
 C            1.01027394        2.03707933       -2.68047107
 C            1.60559835        0.98471287       -3.49171401
 C           -0.37284288        2.11917071       -2.56152234
 C            0.78628235       -1.21724848       -4.22101179
 C            0.79238793        0.23481090       -4.33195763
 C           -1.06713030       -2.68399650       -3.52134273
 C           -2.40289897       -2.57442564       -2.95681280
 C           -3.09640225       -1.29698646       -2.99659875
 C           -0.58920368       -1.67437796       -4.35112080
 C           -2.49517314        1.07813660       -3.25822081
 C           -1.17035513        1.58218853       -3.57386724
 C           -0.57649207        0.67009487       -4.53661686
 C           -2.59794126       -0.27147122       -3.79374424
 C           -1.42095664       -0.51111456       -4.61379259
