   70
C70 / DATE: 7/ 1/2024 / Origin: Program Fullerene / C70 from database
 C            1.41890741        0.02547764        4.38737397
 C            2.59718478       -0.29281372        3.61688166
 C            2.54270510       -1.70786264        3.28374459
 C            0.57723052       -1.15813665        4.43698760
 C            1.30900456       -2.25372534        3.82498802
 C           -0.72927869       -0.80167971        3.89773434
 C            0.59367328        1.12214798        3.93705134
 C           -0.76506982        0.63359304        3.77336434
 C            1.07493468        2.00430520        2.97503113
 C            2.83983051        0.44747155        2.39067615
 C            2.05384504        1.55790610        2.07222393
 C            2.80396321       -1.84178072        1.85876677
 C            3.12873818       -0.52081898        1.35023795
 C            1.99854358       -2.68829160        1.09482090
 C            0.59733481       -3.15702349        3.05126982
 C            1.14166506       -3.55742016        1.76634241
 C           -1.27239496       -1.58780919        2.89237737
 C           -0.81089327       -2.89688505        2.80853911
 C           -1.85555342       -0.97357157        1.76814895
 C           -1.53163258        1.22109200        2.77931166
 C           -1.99589441        0.42465603        1.71672575
 C            0.15742475        2.94969583        2.53811011
 C           -1.24407281        2.55778093        2.53785844
 C            0.39936505        3.66107268        1.30305082
 C            1.99742578        1.96825962        0.73324101
 C            1.32206068        3.14559944        0.40073679
 C            2.77901602       -0.21443076        0.04891667
 C            2.43225586        1.09532545       -0.27496840
 C            1.77071848       -2.37583643       -0.25515840
 C            2.38831865       -1.24484373       -0.79582118
 C            0.80558858       -3.07080360       -1.00644118
 C            0.04580651       -4.17090930        1.05211180
 C           -1.18794115       -3.71266922        1.68325461
 C           -0.09278552       -3.91907848       -0.36354450
 C           -2.25705619       -1.74937024        0.66702916
 C           -1.99467654       -3.12110263        0.64313728
 C           -1.50859802       -3.71077870       -0.58669921
 C           -2.59673315       -1.12693293       -0.53863365
 C           -2.41900343        1.02754046        0.51924943
 C           -2.51236664        0.26417873       -0.64357120
 C           -1.89384694        3.23026093        1.44330759
 C           -0.89992041        4.08010037        0.81148617
 C           -2.48948035        2.41525743        0.41336831
 C           -1.13256547        4.03760428       -0.61475475
 C           -2.17011993        3.03931178       -0.85695682
 C            1.24007025        3.54153164       -0.93360001
 C           -0.02535279        4.05643687       -1.44848515
 C            2.27679574        1.43254422       -1.61977626
 C            1.82582311        2.70150319       -1.96077560
 C            2.26637606       -0.97093098       -2.14822806
 C            2.26192753        0.41783633       -2.57920619
 C            0.45693043       -2.61176118       -2.28164069
 C            1.27530871       -1.68727690       -2.92485495
 C           -1.88529228       -3.11664308       -1.77070331
 C           -2.68699091       -1.91276199       -1.68907348
 C           -0.84707723       -2.81847512       -2.73815838
 C           -2.59475850       -1.29114375       -2.99149585
 C           -1.44418358       -1.87835758       -3.66816206
 C           -2.47559365        0.89803236       -1.89922258
 C           -2.08972574        2.23593013       -1.98841120
 C           -2.45321348        0.14205464       -3.06548461
 C           -0.18789470        3.55478820       -2.79606709
 C            1.03813092        2.87309681       -3.16911230
 C           -1.28223132        2.64114499       -3.05420603
 C            1.38266321        0.52246066       -3.73433152
 C            0.71831508       -0.75998799       -3.90351818
 C           -0.64009230       -0.79197211       -4.19132569
 C           -1.42835608        0.42147982       -4.05308112
 C            0.66926927        1.69688053       -3.93799888
 C           -0.78650513        1.64952764       -3.99398745
