   70
C70 / DATE: 7/ 1/2024 / Origin: Program Fullerene / C70 from database
 C            1.01605501        0.02555435        4.69007684
 C            2.27099396       -0.30872236        4.05482472
 C            2.20759194       -1.71158127        3.68591791
 C            0.17295875       -1.16144644        4.65017858
 C            0.81423108       -2.10756904        3.76174687
 C           -1.17117877       -0.73090453        4.34772454
 C            0.23487537        1.11889547        4.15033093
 C           -1.15178713        0.71979283        4.24041337
 C            0.64757533        1.77104937        2.99164428
 C            2.66760744        0.42401488        2.86970498
 C            1.85799394        1.43494485        2.36491792
 C            2.89084170       -1.86352825        2.41680751
 C            3.23570387       -0.53117644        1.93806936
 C            2.36863646       -2.76798556        1.50613960
 C            0.17573916       -2.52730174        2.59095920
 C            0.95995711       -3.12941789        1.61033335
 C           -1.80647167       -1.23296353        3.14740742
 C           -1.08913475       -2.02300990        2.24653092
 C           -2.03680899        1.08460860        3.14911658
 C           -2.60667807       -0.14247538        2.62534975
 C           -0.29929118        2.50187018        2.27393269
 C           -1.62636578        2.04810642        2.23268308
 C            0.16419818        3.34473593        1.27162564
 C            2.07991542        1.85547912        1.05471826
 C            1.39484019        2.97707051        0.59713875
 C            3.15486148       -0.26900471        0.57077242
 C            2.64484494        0.96296952        0.13356657
 C            2.65431514       -2.56596764        0.10106006
 C            3.18615900       -1.34914976       -0.31479512
 C            0.44206565       -3.27817095        0.26338177
 C            1.55337717       -3.13564241       -0.65672339
 C           -1.54028198       -2.08225804        0.92073036
 C           -0.76853195       -2.69921319       -0.06918198
 C           -2.95209838       -0.17137260        1.28445454
 C           -2.64925547       -1.31598948        0.55037483
 C           -2.34609370        2.14462673        1.03941184
 C           -3.08978568        1.04093017        0.60876401
 C           -0.76573564        3.83430409        0.27341380
 C           -2.04395762        3.16837793        0.14663995
 C            1.19092975        3.15414788       -0.82844572
 C           -0.10590372        3.77345996       -1.02029068
 C            2.51125084        1.20200062       -1.23755771
 C            1.57915012        2.13747640       -1.68641606
 C            3.19737542       -1.09556302       -1.67858521
 C            3.01920053        0.26865683       -2.13263925
 C            1.31939594       -2.63902826       -1.93479689
 C            2.36010299       -1.92380778       -2.52742775
 C           -1.04753427       -2.46356353       -1.41416701
 C           -0.00156390       -2.40763224       -2.34689205
 C           -3.15385564       -1.42559243       -0.74035339
 C           -2.32359946       -2.03176996       -1.76485055
 C           -3.62483153        1.02219037       -0.67594385
 C           -3.80386196       -0.26551199       -1.32455205
 C           -2.29431503        2.98358251       -1.27207690
 C           -1.02973605        3.16876993       -1.96229437
 C           -3.12551734        1.95290369       -1.67480331
 C            0.79938686        1.85750321       -2.81252328
 C           -0.56618380        2.16537286       -2.80887611
 C            2.47075572        0.20616698       -3.47762929
 C            2.13243019       -1.18336559       -3.75046076
 C            1.30561668        1.01059314       -3.79012369
 C           -0.24817106       -1.89772766       -3.62354298
 C            0.81211827       -1.21195253       -4.33727598
 C            0.38332748        0.16599527       -4.51966205
 C           -2.52871139       -1.29836846       -3.00438409
 C           -3.35000674       -0.14127354       -2.69766799
 C           -2.76755927        1.17963269       -2.85216101
 C           -1.48543723        1.28206271       -3.38868594
 C           -1.45263063       -1.12688198       -3.85929161
 C           -1.02350332        0.22904407       -4.17578514
