   70
C70 / DATE: 7/ 1/2024 / Origin: Program Fullerene / C70 from database
 C            1.03623154       -0.13180531        4.85209296
 C            2.30692880       -0.34809509        4.18545075
 C            2.22444296       -1.61863680        3.48553392
 C            0.19362077       -1.28581221        4.57658914
 C            0.85188144       -2.07600076        3.55475183
 C           -1.14323577       -0.80481801        4.32138352
 C            0.26574274        1.06129577        4.54291140
 C           -1.11046216        0.65112330        4.34545989
 C            0.80167135        2.03376070        3.70640674
 C            2.78878400        0.64417129        3.24088184
 C            2.12904752        1.85915321        3.12738259
 C            2.81454490       -1.44115940        2.17474816
 C            3.20040142       -0.04907253        2.02973995
 C            2.22098311       -2.05545862        1.08648698
 C            0.19502998       -2.36613314        2.35802281
 C            0.96570303       -2.65743716        1.23177438
 C           -1.79865457       -1.20014196        3.09126189
 C           -1.15209888       -2.03090979        2.17864455
 C           -1.83031658        1.12406224        3.17335529
 C           -2.47798538       -0.03061571        2.58014636
 C           -0.04209176        2.65893211        2.69515075
 C           -1.24659127        2.07022998        2.32897857
 C            2.13356356        2.53627806        1.84595498
 C            0.83564496        3.16687492        1.66419972
 C            3.02962858        0.56861579        0.78600148
 C            2.73638408        1.93738269        0.74171767
 C            2.58992539       -1.60639015       -0.17164689
 C            2.80125823       -0.23453879       -0.34528057
 C            2.22130980       -2.39180743       -1.25285256
 C            0.33205592       -3.13974071        0.08631534
 C            1.12716575       -3.31773628       -1.04574308
 C           -1.68658884       -2.11567232        0.89298520
 C           -1.04173000       -2.90592817       -0.05425269
 C           -2.76022901        0.01294640        1.22793684
 C           -2.60470314       -1.14535909        0.46948900
 C           -1.66350405        2.12463537        0.99477935
 C           -2.65632522        1.23518733        0.58295016
 C            0.36745137        3.31159948        0.36598805
 C           -0.90057199        2.80988251        0.03275888
 C            2.51502504        2.54168920       -0.48963454
 C            1.34257203        3.39031473       -0.62051012
 C            2.51222899        0.36158445       -1.57736869
 C            2.58560239        1.74025922       -1.69303588
 C            2.00793372       -1.76529216       -2.54044492
 C            1.90098124       -0.38385042       -2.58872399
 C            0.52074299       -3.56920240       -2.33530726
 C            1.05046360       -2.57914274       -3.26321585
 C           -1.68275062       -3.12780775       -1.27083805
 C           -0.91967299       -3.54436606       -2.43133827
 C           -3.03144671       -1.12124680       -0.86154075
 C           -2.67637309       -2.16644852       -1.71624293
 C           -3.16859384        1.32593425       -0.69718397
 C           -3.47745021        0.08917136       -1.39763182
 C           -1.33315121        2.83095973       -1.30449252
 C           -2.54276055        2.22904798       -1.64051259
 C            0.95130453        3.38877215       -2.00848165
 C            1.77483802        2.40333610       -2.69495424
 C           -0.42717787        3.10309899       -2.33125613
 C            0.95059679        0.21282282       -3.43075620
 C            0.89349177        1.60035287       -3.52138178
 C           -0.40435055        2.25010720       -3.50858718
 C           -0.07225511       -1.92542128       -3.90099949
 C           -1.26849848       -2.66007940       -3.52840630
 C           -2.44179144       -1.90426081       -3.13399776
 C           -0.12636633       -0.53481272       -3.92202743
 C           -3.32009687        0.34330187       -2.81574151
 C           -2.70137734        1.65059185       -2.96633094
 C           -1.52805487        1.49678608       -3.80653128
 C           -2.56643853       -0.60600665       -3.60702769
 C           -1.37148706        0.07694515       -4.08395343
