   70
C70 / DATE: 7/ 1/2024 / Origin: Program Fullerene / C70 from database
 C            1.46742812        0.05754874        4.89059465
 C            0.68174177       -1.14993646        4.70103485
 C            1.56367339       -2.14223327        4.13412581
 C            2.67240452       -0.07552160        4.09102090
 C            2.80585223       -1.47528252        3.76213295
 C            2.59929840        0.88847488        3.00302392
 C            0.70554952        1.15715295        4.34010351
 C            1.49890020        1.78486758        3.29619521
 C           -0.52175256       -0.79114900        3.96691666
 C           -0.60590328        0.65619548        3.96533944
 C           -0.85811447       -1.48133594        2.80081742
 C            1.10915734       -2.87727055        2.97274883
 C           -0.16278747       -2.65179057        2.45733010
 C            3.08383396       -1.82816335        2.38651118
 C            2.22059791       -2.94220429        2.04246330
 C            2.78266029        0.46302046        1.68738515
 C            3.26733866       -0.82972798        1.43690256
 C            2.21523736        1.21584499        0.64635811
 C            0.79590118        2.33980175        2.23760633
 C            1.30775660        2.23851780        0.94014025
 C           -1.21737641        1.27693377        2.88822539
 C           -0.58305370        2.40123343        2.37771324
 C           -1.68177111       -0.84686377        1.85639994
 C           -1.98065814        0.51272303        2.00268784
 C           -2.06644374       -1.52305626        0.69776600
 C           -0.44862984       -3.27262116        1.25262688
 C           -1.54594809       -2.78843807        0.44623771
 C            1.94498436       -3.17105251        0.69544872
 C            0.65605604       -3.57879898        0.35079149
 C            3.37755131       -1.25664298        0.12515660
 C            2.72221549       -2.50389453       -0.25156090
 C            2.45386686        0.85942369       -0.68039413
 C            3.15452100       -0.31346292       -0.94639203
 C            1.73475535        1.46736746       -1.71286391
 C            0.57830254        2.84372278       -0.09262487
 C            0.70315626        2.36848066       -1.40869539
 C           -1.27628210        3.14716023        1.45397189
 C           -0.55136573        3.57414029        0.27716981
 C           -2.65093017        1.19686002        0.98124155
 C           -2.51239508        2.58784885        0.95843767
 C           -2.70477954       -0.83509657       -0.33533159
 C           -3.02870752        0.51426827       -0.18398527
 C           -2.80412406       -1.43287148       -1.59453134
 C           -1.26325751       -3.18531125       -0.92082142
 C            0.16983792       -3.40125295       -1.00959464
 C           -1.89917784       -2.51041212       -1.94351853
 C            2.23885023       -2.34267574       -1.61421106
 C            2.80481770       -1.10076857       -2.11227115
 C            0.92000133       -2.66643602       -1.92440270
 C            1.85875066        0.94442844       -3.00182680
 C            2.17499535       -0.46149308       -3.15941786
 C            0.85603265        1.24303808       -3.99685498
 C           -0.21000114        2.77028405       -2.40805072
 C           -0.23786624        2.10364170       -3.62818143
 C           -1.55662030        3.90479362       -0.70654107
 C           -2.81805371        3.33990242       -0.23846222
 C           -1.36444007        3.46494908       -2.06347520
 C           -3.56142521        1.21198228       -1.27459912
 C           -3.43317580        2.65175854       -1.34545212
 C           -2.64270283        2.95083424       -2.52579920
 C           -2.94466351       -0.60536205       -2.77829456
 C           -1.47237011        1.45611267       -4.04594157
 C           -3.33140360        0.71587295       -2.62070119
 C           -2.64207806        1.76434019       -3.36320258
 C           -1.11412537       -2.05069123       -3.07594546
 C            0.27848646       -2.00460985       -2.97657961
 C            0.99517933       -1.07876147       -3.73452344
 C            0.29122215       -0.02452266       -4.44301200
 C           -1.84607098       -0.94202319       -3.67535380
 C           -1.15245915        0.06820955       -4.32921198
