   70
C70 / DATE: 7/ 1/2024 / Origin: Program Fullerene / C70 from database
 C            1.10462753       -0.15457001        4.86018693
 C            2.35112089       -0.39274290        4.15726202
 C            2.24241741       -1.68206498        3.49029706
 C            0.26326132       -1.32441196        4.66388723
 C            0.87191621       -2.12935428        3.62276772
 C           -1.09231027       -0.86317652        4.47472451
 C            0.31223658        1.01715175        4.52593413
 C           -1.07053268        0.59257038        4.43271189
 C            0.79516863        1.94100991        3.60611996
 C            2.80470033        0.57240976        3.17252036
 C            2.10251218        1.75479776        2.98795459
 C            2.79001854       -1.53882948        2.15370222
 C            3.24782479       -0.17017376        2.00812699
 C            2.12224355       -2.11948926        1.07709666
 C            0.16118194       -2.41717812        2.45939820
 C            0.87559744       -2.71364823        1.29606421
 C           -1.82098903       -1.31336392        3.30603602
 C           -1.21647164       -2.15776414        2.37771468
 C           -1.86611671        1.00703834        3.28757110
 C           -2.55437394       -0.17406773        2.80244939
 C           -0.09859818        2.48890842        2.59380126
 C           -1.33805591        1.89993019        2.35484526
 C            2.04539982        2.33847361        1.65964473
 C            0.72030293        2.89482462        1.46945465
 C            3.16145327        0.40008725        0.74509517
 C            2.64391561        1.69171959        0.58168181
 C            2.45218863       -1.68244061       -0.21030149
 C            3.13306669       -0.46324603       -0.34366004
 C            1.83571404       -2.28142350       -1.31793040
 C            0.19115603       -3.25991964        0.22164837
 C            0.70158002       -3.05991331       -1.12211643
 C           -1.86343375       -2.32556661        1.15039237
 C           -1.24935224       -3.10827714        0.17715332
 C           -2.94078270       -0.19810500        1.47502708
 C           -2.84681959       -1.40133185        0.77722511
 C           -1.86044120        1.89639945        1.05686588
 C           -2.87638008        0.98978893        0.75611230
 C            0.18490010        2.86009571        0.19240811
 C           -1.15624603        2.51252266        0.01358576
 C            2.28794337        2.10546216       -0.70632995
 C            1.06084183        2.75670904       -0.88401101
 C            3.32833792        0.09402478       -1.59639993
 C            2.89048863        1.46210214       -1.78594439
 C            2.06552713       -1.78625773       -2.59809826
 C            2.96109495       -0.66508078       -2.76827822
 C            0.92965439       -1.59153857       -3.48887092
 C           -0.43411898       -2.88113166       -2.01365736
 C           -1.64357787       -2.98470953       -1.21695976
 C           -0.34340766       -1.94368691       -3.04251220
 C           -3.41202962       -1.46180095       -0.49375973
 C           -2.73646924       -2.20424950       -1.54462148
 C           -3.48087022        1.03011526       -0.49077316
 C           -3.90851488       -0.22746846       -1.07902554
 C           -1.69262231        2.52038280       -1.28021215
 C           -2.87873300        1.83060435       -1.54010039
 C            0.55585098        2.97270348       -2.15914302
 C           -0.88266966        2.90279688       -2.35069410
 C            2.31910089        1.56963146       -3.11719037
 C            2.36669248        0.24967695       -3.72711128
 C            1.13743032       -0.35199282       -4.21826478
 C            1.19696439        2.35989400       -3.31072459
 C           -1.12411105        2.32366534       -3.66002945
 C            0.05164386        0.46510042       -4.48992261
 C            0.15024420        1.88760854       -4.20148293
 C           -1.44883425       -1.14380907       -3.36254431
 C           -2.66946789       -1.35382039       -2.72052495
 C           -3.53797967       -0.21568172       -2.48148302
 C           -3.04142665        1.10836192       -2.79846264
 C           -1.27857556        0.02875400       -4.10448540
 C           -2.05200735        1.21696521       -3.76184076
