   70
C70 / DATE: 7/ 1/2024 / Origin: Program Fullerene / C70 from database
 C            1.58437611        0.07542682        4.73768624
 C            0.76458291       -1.11784305        4.66565671
 C            1.35776772       -2.01877562        3.69025113
 C            2.66232246       -0.06871324        3.77446588
 C            2.58400151       -1.40046051        3.20863129
 C            2.61527095        1.07074604        2.87410962
 C            0.75997341        1.19109512        4.31077480
 C            1.46602701        1.87367675        3.25140744
 C           -0.60989410       -0.69629108        4.45824129
 C           -0.56806492        0.68995502        4.01985784
 C           -1.44686394       -1.56640154        3.78560087
 C            0.50323552       -2.67497215        2.80216789
 C           -0.84759509       -2.72331902        3.14362827
 C            0.89278032       -2.85989288        1.46438530
 C            2.94096068       -1.56640370        1.88354907
 C            2.16562243       -2.47096420        1.05779086
 C            2.86791918        0.87778402        1.51145719
 C            3.24187428       -0.39215637        1.07275165
 C            2.33150176        1.79364842        0.59209687
 C            0.73418090        2.43150936        2.22273563
 C            1.43372281        2.74836180        1.07395112
 C           -1.16037890        1.05183719        2.80663566
 C           -0.62075083        2.10994771        2.07941432
 C           -2.36888247       -1.01927222        2.81050796
 C           -2.03644787        0.17062250        2.16958743
 C           -1.81214968       -3.19536702        2.17999951
 C           -2.81387652       -2.14494833        2.02391758
 C           -0.04139134       -3.23452828        0.48831326
 C           -1.35359737       -3.53275262        0.85432903
 C            0.24306833       -3.03774982       -0.87057927
 C            2.37495541       -2.07038668       -0.31934376
 C            3.01314207       -0.76478338       -0.30759605
 C            1.37455978       -2.30484865       -1.25195138
 C            2.34652126        1.50102270       -0.78096222
 C            2.56930104        0.18855206       -1.20959283
 C            1.84222997        2.43887624       -1.69279517
 C            0.79119970        3.58658949        0.18463150
 C            1.18113243        3.56583022       -1.20467214
 C           -1.25457314        2.51033437        0.90532444
 C           -0.65817769        3.56024948        0.21469396
 C           -2.33512739        0.35284108        0.80847709
 C           -1.99937257        1.56067661        0.19072116
 C           -3.01622590       -1.96496251        0.60402886
 C           -2.42662326       -3.12824857       -0.02882537
 C           -2.80065198       -0.71447608        0.02426561
 C           -0.77782292       -3.25417498       -1.79720378
 C           -2.15091155       -3.04646682       -1.37556842
 C           -0.67454195       -2.67487914       -3.12350554
 C            1.33724012       -1.50261148       -2.39741821
 C            1.97184033       -0.25520426       -2.38429329
 C            0.44929231       -1.81234081       -3.42014062
 C            1.70349223        2.07933595       -3.03655752
 C            1.72493159        0.67090023       -3.39177037
 C            0.69369555        2.72061269       -3.86607230
 C            0.05251014        4.12754542       -1.92850767
 C           -1.12661668        3.89622909       -1.10921463
 C           -0.24406807        3.63753293       -3.25384883
 C           -2.16122156        1.69136939       -1.19587719
 C           -1.94328117        2.92701471       -1.80010696
 C           -1.53836233        2.96886399       -3.18820952
 C           -2.67842171       -0.65654980       -1.36844993
 C           -2.58779192       -1.85804498       -2.07661441
 C           -1.88218835       -1.88627385       -3.33495094
 C           -2.31929119        0.54731184       -1.98688334
 C           -0.07002025       -0.74363253       -4.24949091
 C            0.65885439        0.42991870       -4.35490368
 C           -0.08840589        1.66931199       -4.48347379
 C           -1.42111028        1.72045480       -3.90459072
 C           -1.47877602       -0.63085061       -3.91376781
 C           -1.92060978        0.55356205       -3.33830577
