   70
C70 / DATE: 7/ 1/2024 / Origin: Program Fullerene / C70 from database
 C            1.34285279        0.08652037        4.90716455
 C            0.55736453       -1.11241179        4.68946485
 C            1.41471799       -2.08878049        4.05767323
 C            2.58791795       -0.06672080        4.17114773
 C            2.64187533       -1.41565771        3.65810061
 C            2.66887575        1.02237280        3.22528236
 C            0.61702816        1.20350452        4.32289079
 C            1.51484618        1.88517859        3.42623973
 C           -0.65946694       -0.72663571        4.00168728
 C           -0.62153592        0.70757366        3.77128283
 C           -1.15645514       -1.52613825        2.98088760
 C            0.90715345       -2.78183885        2.89289452
 C           -0.42584279       -2.63608621        2.52344514
 C            2.80229882       -1.60972997        2.22529239
 C            1.89884051       -2.67522333        1.84436713
 C            3.07291345        0.78008446        1.91328819
 C            2.93228164       -0.51058893        1.37633609
 C            2.97648226        1.86677773        1.05560009
 C            0.99352866        2.50749803        2.29976143
 C            1.92093522        2.82827063        1.32269534
 C           -1.04075183        1.18799345        2.52966861
 C           -0.32085853        2.21398831        1.89331736
 C           -2.08109634       -0.94602785        2.11849538
 C           -1.91844058        0.40201692        1.77870239
 C           -2.77371712       -1.79278253        1.26846982
 C           -0.79808797       -3.19141027        1.29966017
 C           -2.12913002       -3.04115221        0.92488577
 C            1.43770444       -2.72782773        0.53831024
 C            0.19212707       -3.30689191        0.31063309
 C            2.61058643       -0.67151743        0.02035636
 C            1.94210918       -1.83155041       -0.40768734
 C            3.01378810        1.65736859       -0.37561130
 C            2.84910160        0.37614248       -0.87292235
 C            1.45598836        3.33787427        0.06014231
 C            2.27479755        2.75072928       -0.98553284
 C           -0.77324743        2.68485428        0.64921684
 C            0.09452817        3.44074439       -0.15879039
 C           -2.37381024        0.87925312        0.54933382
 C           -1.93340200        2.12277224        0.09503861
 C           -3.36612327       -1.26044293        0.06066287
 C           -3.05383053        0.03265206       -0.33077189
 C           -2.55576140       -3.41555725       -0.40690060
 C           -3.33676963       -2.31200867       -0.94228015
 C           -0.14961438       -3.59558747       -1.00493159
 C           -1.54202876       -3.75521784       -1.37767509
 C            1.53892728       -1.96586654       -1.74334660
 C            0.51527842       -2.85973998       -2.06540272
 C            2.50816842        0.23934095       -2.21063634
 C            1.83663495       -0.96249002       -2.65797554
 C            1.70145477        2.57548931       -2.24198561
 C            1.92970583        1.37465875       -2.92199631
 C           -0.28487688        3.77664922       -1.45082209
 C            0.57200508        3.33793881       -2.54556751
 C           -2.43231277        2.60345950       -1.11540951
 C           -1.65579232        3.57587812       -1.85030671
 C           -3.03677208        0.32082962       -1.69094449
 C           -2.96274626        1.64937088       -2.07505548
 C           -2.81788246       -1.99337264       -2.26142953
 C           -1.77863137       -2.95441460       -2.56683779
 C           -0.49981822       -2.44992313       -3.02717959
 C           -2.58868542       -0.66002648       -2.57788959
 C            0.82382916       -0.57431510       -3.62750465
 C            0.94382223        0.85298852       -3.86244537
 C           -0.43380077       -1.16250705       -3.54911366
 C           -1.56764125       -0.34365433       -3.47997696
 C           -0.28341074        2.94644831       -3.64865957
 C           -1.65804423        3.19867084       -3.25399691
 C           -2.38311437        1.94924797       -3.36977172
 C           -0.19786235        1.58753650       -4.14334982
 C           -1.49910741        0.96141892       -3.96168791
