   70
C70 / DATE: 7/ 1/2024 / Origin: Program Fullerene / C70 from database
 C            1.34467402       -0.06625867        5.51771322
 C            0.46086313       -1.20773331        5.66483974
 C            1.09957794       -2.34409447        5.02414514
 C            2.45578940       -0.46781720        4.66994166
 C            2.29775590       -1.86710830        4.35203211
 C            2.52333912        0.47062882        3.57001174
 C            0.61389902        0.97122538        4.80925931
 C            1.45969569        1.44410844        3.73437267
 C           -0.76117073       -0.91609088        4.93306962
 C           -0.68726043        0.45091126        4.44779907
 C            0.19803447       -2.83419198        3.99800893
 C           -0.96723682       -1.97214819        3.95832947
 C            2.20053826       -2.24397416        2.95188258
 C            0.96134875       -2.97634407        2.77414957
 C            2.76712608        0.01329025        2.27809251
 C            2.55911429       -1.33521833        1.95359099
 C            2.59844538        0.93874699        1.25911830
 C            0.85349317        1.90625056        2.57100175
 C            1.63494673        1.93853575        1.42587935
 C           -1.14855523        0.71117805        3.16198335
 C           -0.51587495        1.70007801        2.39972100
 C           -1.45466504       -1.61864003        2.70501607
 C           -1.83390818       -0.29778952        2.48503167
 C            0.29588381       -2.79493663        1.57062870
 C           -1.02700353       -2.35006595        1.60137861
 C            2.17348246       -1.63873640        0.64013268
 C            1.05772291       -2.46051986        0.45462934
 C            2.89736431        0.53822361       -0.03082322
 C            2.54492486       -0.76611483       -0.38693826
 C            2.89511467        1.53202258       -0.99491674
 C            1.10424874        2.54100702        0.28952711
 C            1.91311287        2.58781404       -0.83777803
 C           -1.08420818        2.01241561        1.16214543
 C           -0.28521083        2.55099480        0.14025800
 C           -2.38016320        0.02026624        1.24700586
 C           -2.24444352        1.33063997        0.81020655
 C           -1.63904112       -2.08867416        0.38135267
 C           -2.48933363       -0.98571001        0.28413260
 C            0.41025372       -2.45546560       -0.77593084
 C           -0.98426692       -2.50885886       -0.76609967
 C            2.12152969       -1.03946569       -1.69430178
 C            1.07153999       -1.93851727       -1.88947995
 C            2.93157707        1.15317380       -2.38696507
 C            2.50010497       -0.18221375       -2.72835809
 C            1.32443271        2.84171233       -2.13429232
 C            2.09311000        2.08861766       -3.11315850
 C           -0.86396826        2.79063551       -1.11659570
 C           -0.05795344        2.88953197       -2.26383546
 C           -2.90713506        1.70209850       -0.34429425
 C           -2.24538972        2.62782623       -1.23822001
 C           -3.03642955       -0.65962151       -0.96379973
 C           -3.46724589        0.65041266       -1.17242132
 C           -1.68074075       -2.44630204       -1.96074856
 C           -2.76434917       -1.48429375       -2.06107120
 C            0.46795326       -2.04892996       -3.14149474
 C           -0.93244577       -2.41812175       -3.20016252
 C            1.67539709       -0.07173421       -3.92101904
 C            1.37766457        1.34022654       -4.12970604
 C            0.69306975       -1.02384160       -4.14593998
 C           -0.59275681        2.65855689       -3.53408877
 C            0.07890837        1.72900533       -4.42906831
 C           -2.85877870        2.45336702       -2.54103061
 C           -3.56775062        1.18143921       -2.52081483
 C           -2.01690323        2.47587874       -3.71205415
 C           -2.75131732       -0.94361927       -3.41551652
 C           -1.60567520       -1.50852633       -4.11077402
 C           -0.60329959       -0.62020224       -4.67396340
 C           -0.89945624        0.73016788       -4.82530732
 C           -3.09031545        0.38491099       -3.63338527
 C           -2.21178408        1.22598213       -4.43203314
