   70
C70 / DATE: 7/ 1/2024 / Origin: Program Fullerene / C70 from database
 C            1.25061298        0.06192488        4.69468390
 C            2.49465593       -0.05373988        3.96486200
 C            2.55119810       -1.40288753        3.43529046
 C            0.42520509       -1.08700752        4.33762760
 C            1.20306868       -1.92457790        3.44931310
 C           -0.85463024       -0.58541307        3.87502510
 C            0.45032422        1.24711903        4.48408154
 C           -0.91380454        0.80197064        4.26605390
 C            0.78395512        2.13363737        3.37928447
 C            2.74334285        0.84998835        2.85201619
 C            1.75937553        1.75727411        2.46236066
 C            3.22518591       -1.33329016        2.15480762
 C            3.42817106        0.07511218        1.83975497
 C            2.79661535       -2.16630367        1.12580323
 C            0.65799566       -2.31652332        2.23472989
 C            1.52328399       -2.74333782        1.22702394
 C           -1.30281664       -0.93280052        2.60093575
 C           -0.65188967       -1.94957926        1.89963727
 C           -2.19609035       -0.08905511        1.92203845
 C           -1.50944338        1.72421824        3.33465069
 C           -0.47262621        2.64304754        2.88795107
 C           -2.37108275        1.23422905        2.36422169
 C           -0.56505709        3.10433761        1.58226960
 C            1.56761498        2.02300436        1.10051501
 C            0.46002526        2.78564238        0.67300786
 C            3.33397746        0.46200238        0.50982143
 C            2.48734311        1.52123225        0.16756796
 C            3.31289761       -1.89056629       -0.13544575
 C            3.62550486       -0.50723042       -0.44759449
 C            2.72270783       -2.49615015       -1.31421270
 C            0.97259269       -3.40521984        0.13700887
 C            1.60754983       -3.30724741       -1.16686219
 C           -1.18982782       -2.39727218        0.69635230
 C           -0.46129661       -3.31318005       -0.06356145
 C           -2.66358911       -0.47321018        0.65392444
 C           -2.24995684       -1.70125199        0.11251464
 C           -3.42072691        0.42418757       -0.11911295
 C           -2.80546545        2.18328017        1.45580817
 C           -1.86261360        3.23139784        1.10272801
 C           -3.46393240        1.76124034        0.24588280
 C           -2.07389307        3.57271149       -0.27992877
 C           -3.17894327        2.76485559       -0.76520617
 C            0.28935228        3.07343417       -0.69514840
 C           -0.97047531        3.40489347       -1.19180987
 C            2.38824005        1.89450489       -1.16672178
 C            1.22769138        2.63013393       -1.61648182
 C            3.30037826       -0.27487040       -1.84233208
 C            2.77293702       -1.51644159       -2.38939113
 C            2.73672987        0.93861020       -2.20671158
 C            1.76005629       -1.47989042       -3.34057265
 C            0.55880037       -3.28844021       -2.17466848
 C           -0.71517450       -3.44178710       -1.48767815
 C            0.65968693       -2.42859936       -3.26380052
 C           -2.73643206       -2.12790907       -1.12281870
 C           -1.85828119       -2.86264512       -2.01560661
 C           -3.70753596        0.12791351       -1.44829404
 C           -3.49418269       -1.21154903       -1.94138017
 C           -2.84821612        2.31570211       -2.10447508
 C           -1.47046192        2.70461295       -2.36706535
 C           -3.26697810        1.05238434       -2.48395516
 C            0.75867743        2.01970054       -2.85332137
 C            1.69743872        0.97824987       -3.22349777
 C            1.22069953       -0.20073748       -3.77690771
 C           -0.61094015        1.83729499       -3.04006269
 C           -0.53105046       -1.76907037       -3.77227574
 C           -1.77620031       -2.11296637       -3.26100047
 C           -2.81463663       -1.10136347       -3.22408854
 C           -2.44191720        0.29197229       -3.39790494
 C           -0.20783547       -0.36312002       -3.98053340
 C           -1.09588820        0.62341367       -3.54912589
