   70
C70 / DATE: 7/ 1/2024 / Origin: Program Fullerene / C70 from database
 C            1.41890329        0.09416512        4.73382708
 C            0.61550844       -1.09905796        4.55218124
 C            1.33624666       -1.99802849        3.66982230
 C            2.58632032       -0.02285423        3.87621421
 C            2.53081086       -1.30172237        3.20925245
 C            2.64924331        1.16154747        3.05624361
 C            0.63692233        1.22341529        4.26032354
 C            1.45106670        1.94899677        3.31591172
 C           -0.71490351       -0.68114676        4.16298252
 C           -0.64081728        0.72717694        3.80201797
 C           -1.44347497       -1.52946133        3.34875217
 C            0.61571946       -2.76538786        2.75587284
 C           -0.77813700       -2.67865601        2.74413879
 C            1.27985042       -3.22686752        1.62321338
 C            2.86883394       -1.37977035        1.86166715
 C            2.47381098       -2.52574412        1.17775679
 C            3.08208436        1.05423868        1.73700913
 C            3.18734323       -0.21494066        1.14122646
 C            2.85511779        2.16665358        0.93027440
 C            0.84036108        2.55996416        2.22858371
 C            1.69618504        2.98941950        1.22876580
 C           -1.10729580        1.13809789        2.55249421
 C           -0.46778323        2.18908210        1.87327428
 C           -2.28843424       -0.94840685        2.32467229
 C           -2.03029381        0.33865907        1.87443381
 C           -1.52061418       -3.01115143        1.53656164
 C           -2.54051002       -1.98575025        1.35057788
 C            0.53084746       -3.62711640        0.44228190
 C           -0.85828207       -3.51637903        0.41913128
 C            2.50948409       -2.56722420       -0.27286278
 C            1.29632657       -3.22036601       -0.72821859
 C            3.44047999       -0.30978747       -0.23048905
 C            2.99330208       -1.47646918       -0.96967425
 C            2.97436287        2.07077316       -0.51359152
 C            3.24068249        0.84445378       -1.08964090
 C            1.14277324        3.45440004       -0.01633508
 C            1.95309110        2.92167150       -1.09694902
 C           -1.00441021        2.63470191        0.65418921
 C           -0.23185865        3.45727779       -0.18264836
 C           -2.42597173        0.69514611        0.59133626
 C           -2.12253647        1.96973062        0.13367516
 C           -2.89071068       -1.62890732        0.05623072
 C           -2.92676012       -0.27124588       -0.29543767
 C           -1.49582226       -3.42761134       -0.81712900
 C           -2.66862846       -2.57944897       -0.93049943
 C            0.61287323       -2.74197720       -1.84091809
 C           -0.69380821       -3.18185378       -2.00474201
 C            2.27722432       -1.01434319       -2.14753966
 C            2.46438474        0.42159941       -2.24530663
 C            1.03396401       -1.55528747       -2.46195791
 C            1.29699996        2.53900134       -2.26274319
 C            1.41127977        1.21110975       -2.70403423
 C           -0.68005250        3.72555034       -1.47044541
 C            0.14797639        3.26024285       -2.57620940
 C           -2.73099546        2.42435667       -1.02705248
 C           -2.05565194        3.44099559       -1.80130534
 C           -3.26145988        0.09783405       -1.60686889
 C           -3.28196860        1.44817165       -1.95174934
 C           -2.79833436       -2.20523703       -2.31999217
 C           -1.54604555       -2.54351264       -2.98322282
 C           -3.09109884       -0.82524105       -2.63970369
 C            0.13963311       -0.78995905       -3.22097004
 C            0.33971228        0.58916246       -3.35947574
 C           -1.07093740       -1.34139497       -3.63095226
 C           -2.22668011       -0.47614247       -3.75457952
 C           -0.73060656        2.77027089       -3.61336102
 C           -2.09511953        3.05357117       -3.19906214
 C           -2.83966312        1.81421661       -3.28835552
 C           -0.65277545        1.36757066       -3.95736677
 C           -2.01728374        0.86522592       -4.01350598
