   70
C70 / DATE: 7/ 1/2024 / Origin: Program Fullerene / C70 from database
 C            1.35461222       -0.06381544        4.46567695
 C            2.66370586       -0.26641171        3.87600943
 C            2.68080952       -1.59023933        3.28120182
 C            0.54173355       -1.22986134        4.16012581
 C            1.33870029       -2.14368168        3.37007981
 C           -0.71169345       -0.76653653        3.61081120
 C            0.59796682        1.11820564        4.09300713
 C           -0.70034340        0.68595653        3.60235680
 C            1.24356600        2.15663264        3.43790797
 C            3.13342577        0.67531407        2.87479935
 C            2.52260659        1.91538281        2.77238886
 C            3.29557473       -1.48230238        1.97013229
 C            3.40516666       -0.06703482        1.65448963
 C            2.85885768       -2.34401452        0.98074846
 C            0.78328258       -2.71702088        2.22838401
 C            1.65074990       -3.11792333        1.22193225
 C           -1.24955054       -1.41658113        2.51378065
 C           -0.55652633       -2.47102377        1.90160510
 C           -2.21995763       -0.74271579        1.78835193
 C           -1.28900354        1.35964458        2.52823746
 C           -2.10272774        0.64310013        1.63854329
 C            0.46566109        3.01617057        2.56395981
 C           -0.81803374        2.62859948        2.17578298
 C            2.44209498        2.53995214        1.46603694
 C            1.38328719        3.52350567        1.55794426
 C            2.92291318        0.41285716        0.43125209
 C            2.53417899        1.75086707        0.31914419
 C            2.76402923       -1.85029676       -0.37874985
 C            2.64102023       -0.48370660       -0.60487090
 C            1.11152466       -3.47285334       -0.07123930
 C            1.88029846       -2.75652360       -1.07901346
 C           -1.11116903       -3.05583344        0.75294726
 C           -0.26291891       -3.57415352       -0.24246723
 C           -2.96991898       -1.47286018        0.87976604
 C           -2.44468731       -2.75570258        0.45656455
 C           -3.47433781       -0.80436498       -0.30217558
 C           -2.56344487        1.24794770        0.46476171
 C           -2.97875395        0.45495846       -0.59767647
 C           -1.41355704        3.30537095        1.11629214
 C           -2.30857617        2.58593890        0.22909491
 C            0.85604522        4.02983412        0.38417008
 C           -0.58554070        4.17240697        0.29653039
 C            1.94555126        2.20624621       -0.86154636
 C            1.29540843        3.44546339       -0.87081049
 C            1.95682898       -0.04411710       -1.74070246
 C            1.76911063        1.33019142       -1.93368577
 C            1.21767038       -2.31070488       -2.21271223
 C            1.38453019       -0.98394160       -2.61915715
 C           -0.70418945       -3.67508222       -1.56072887
 C            0.06779211       -3.00349093       -2.59390280
 C           -2.99133362       -3.02614492       -0.85913177
 C           -3.58760606       -1.79090738       -1.35002699
 C           -2.10694329       -3.52748864       -1.88101534
 C           -0.86555737       -2.41120272       -3.53992033
 C           -3.00786217       -1.49355963       -2.64038510
 C           -2.20767927       -2.64315364       -3.03030634
 C           -2.56642695        0.77515546       -1.90097670
 C           -2.50238858       -0.22028187       -2.89346659
 C           -2.04503555        3.00717731       -1.13571552
 C           -0.96465286        3.97897199       -1.09139131
 C            0.24517122        3.69975219       -1.84298437
 C           -2.03974740        2.05299944       -2.15422626
 C            1.12520493        1.79931341       -3.07526469
 C            0.14435486        2.85679175       -2.93379851
 C           -1.13983272        2.23469927       -3.20540919
 C            0.70489109       -0.55821773       -3.75558207
 C           -0.57565387       -1.16338048       -4.06844165
 C           -1.56164952       -0.10904740       -3.91306608
 C            0.56355090        0.85677339       -4.01682253
 C           -0.86457656        1.13999797       -4.10744729
