   70
C70 / DATE: 7/ 1/2024 / Origin: Program Fullerene / C70 from database
 C            1.21430246       -0.14700752        4.86189532
 C            2.53341616       -0.47076144        4.35799671
 C            2.44184197       -1.75770651        3.68087977
 C            0.39751185       -1.34007052        4.72610711
 C            1.06064211       -2.20314639        3.76949621
 C           -0.94919780       -0.90219912        4.43967984
 C            0.47307103        0.94396210        4.24678248
 C           -0.91367452        0.54409370        4.26285014
 C            0.98608642        1.57553572        3.11201422
 C            3.15729062        0.45661904        3.44018116
 C            2.35845555        1.53347376        2.87894779
 C            3.04324236       -1.61317288        2.36174256
 C            3.67225894       -0.31495952        2.32025061
 C            2.32232953       -2.03938039        1.25012986
 C            0.40862850       -2.56257677        2.59171226
 C            1.18874164       -2.81644955        1.46628677
 C           -1.62892457       -1.45384628        3.28377959
 C           -0.96391167       -2.31951361        2.42454262
 C           -1.73062833        0.85544909        3.11327135
 C           -2.38021959       -0.37250472        2.69660340
 C            0.12807621        2.00965280        2.08505492
 C           -1.23795967        1.69567802        2.11860529
 C            0.67393034        2.55358811        0.91110764
 C            2.83995548        1.71982761        1.53270466
 C            3.49043541        0.48690140        1.13112024
 C            2.01511140        2.31110922        0.59835818
 C            2.48381714       -1.39590031        0.01108655
 C            3.04636445       -0.11423825       -0.04513588
 C            1.79041321       -1.89567711       -1.10090301
 C            0.59353446       -3.42837203        0.38086183
 C            1.06491092       -3.07608554       -0.94241608
 C           -1.53287975       -2.55922051        1.17124525
 C           -0.85323943       -3.42725244        0.32585152
 C           -2.74181424       -0.46552572        1.36411013
 C           -2.43617758       -1.62106551        0.63464293
 C           -1.96655180        1.75292054        0.93288164
 C           -2.87860662        0.72407207        0.67056960
 C           -0.17746158        2.96401273       -0.12848919
 C           -1.51702300        2.56666041       -0.10586961
 C            0.40213422        3.37062576       -1.33850944
 C            2.32310031        2.05876471       -0.72450975
 C            2.64810026        0.74209036       -1.06834285
 C            1.72728737        2.87836906       -1.65998008
 C            1.56047075       -1.07127466       -2.21795338
 C            2.15020071        0.20003335       -2.25082695
 C            0.61362216       -1.44170635       -3.19497997
 C           -0.01323943       -3.38264016       -1.85308956
 C           -1.22964006       -3.51952725       -1.06459943
 C           -0.28866946       -2.45670235       -2.92085444
 C           -2.79920807       -1.66618974       -0.72612053
 C           -2.19830253       -2.58131656       -1.58361256
 C           -1.70236203       -2.12198447       -2.87099402
 C           -3.52940569        0.67038389       -0.54559086
 C           -3.43552857       -0.56406718       -1.30217877
 C           -2.31592256        2.72087619       -1.23924883
 C           -3.39582453        1.78132351       -1.46076225
 C           -0.37357365        3.36815054       -2.56917761
 C           -1.70277491        2.97727857       -2.52817823
 C            1.74090397        2.46737633       -3.04518799
 C            1.92600499        1.05826853       -3.32569534
 C            0.48507665        2.88609712       -3.64002715
 C            0.19138052       -0.50991009       -4.13174957
 C            0.95702647        0.69468976       -4.33243797
 C            0.02218130        1.80088505       -4.48179532
 C           -2.10917078       -0.87930499       -3.35391683
 C           -3.13197688       -0.20806526       -2.68243961
 C           -3.25280971        1.23603376       -2.79980838
 C           -2.20356438        1.97697301       -3.46733116
 C           -1.22257894       -0.16578613       -4.16825107
 C           -1.31903555        1.28333198       -4.28238650
