   70
C70 / DATE: 7/ 1/2024 / Origin: Program Fullerene / C70 from database
 C            1.26188192        0.03597273        4.31574403
 C            2.58133539       -0.24548559        3.80552642
 C            2.60695630       -1.63473889        3.38003514
 C            0.43832865       -1.14692673        4.11379975
 C            1.25052963       -2.15121471        3.45604242
 C           -0.79390739       -0.72776325        3.47426341
 C            0.54249794        1.16547172        3.76734259
 C           -0.80234303        0.72035819        3.43958014
 C            1.17516751        2.05795952        2.90196450
 C            3.08197727        0.56137778        2.71157923
 C            2.41855142        1.72792089        2.32998371
 C            3.30449876       -1.70328664        2.10674698
 C            3.55643804       -0.33853759        1.67039506
 C            2.87793079       -2.63559448        1.17491901
 C            0.73294726       -2.82158761        2.35168173
 C            1.63027814       -3.33993720        1.41925579
 C           -1.23780939       -1.41699996        2.35801470
 C           -0.59222659       -2.59229223        1.96733062
 C           -2.09538920       -0.77407488        1.46804576
 C           -1.47833721        1.37450507        2.41361667
 C           -2.16591878        0.62629283        1.45129819
 C            0.35208607        2.99319377        2.27781861
 C           -1.05076404        2.65595233        2.08673830
 C            0.80241155        3.70297971        1.09514798
 C            2.78485498        2.27493456        1.10164770
 C            1.98298248        3.31457078        0.48505744
 C            3.36414055        0.02361019        0.33592981
 C            3.24463937        1.37961054        0.05018891
 C            2.87324864       -2.26892197       -0.22712650
 C            2.87658127       -0.91977247       -0.57819900
 C            1.14270810       -3.80877046        0.13341018
 C            1.96474210       -3.18510562       -0.89498445
 C           -1.12478533       -3.32632544        0.91308087
 C           -0.22606932       -3.92686312       -0.05983198
 C           -2.74677552       -1.52601993        0.49119715
 C           -2.27199911       -2.80186925        0.19136585
 C           -3.59198719       -0.89329215       -0.41364726
 C           -2.77367607        1.28048473        0.37427912
 C           -3.59402548        0.55701589       -0.48812753
 C           -1.49472397        3.26558152        0.84964455
 C           -0.36675560        3.99110754        0.28030449
 C           -2.35509474        2.56470762        0.01096453
 C           -0.23746338        4.06257887       -1.10097016
 C            2.01724956        3.09939171       -0.95445709
 C            2.61134387        1.79398034       -1.18395603
 C            0.93886576        3.48702201       -1.73616462
 C            2.19699553       -0.50298922       -1.73211832
 C            1.92716070        0.84828067       -1.93629376
 C            1.38827128       -2.79874412       -2.09510418
 C            1.59417496       -1.44058836       -2.56563603
 C           -0.78703602       -3.70176539       -1.38192312
 C           -2.14200103       -3.21072574       -1.19959023
 C            0.01060817       -3.16229629       -2.38543226
 C           -3.67328261       -1.40665495       -1.77027346
 C           -2.72573456       -2.42566683       -2.18397093
 C           -3.66400418        0.93295844       -1.89346720
 C           -3.53690899       -0.28283307       -2.67504438
 C           -2.47753071        2.98026946       -1.31316861
 C           -1.38464488        3.71713005       -1.92132847
 C           -2.95063012        2.04404771       -2.31223947
 C            0.47084410        2.57979493       -2.76898114
 C            0.82565232        1.23522219       -2.70737534
 C           -0.90575442        2.92326755       -3.04216251
 C           -1.85279988        1.84663925       -3.24898042
 C            0.42219774       -1.05015309       -3.32982319
 C           -0.53372316       -2.14365902       -3.26908277
 C           -1.88935219       -1.85119117       -3.23100494
 C           -2.31885255       -0.47962640       -3.43954034
 C           -0.02635502        0.26521278       -3.24863843
 C           -1.38241648        0.55286997       -3.46529719
