   70
C70 / DATE: 7/ 1/2024 / Origin: Program Fullerene / C70 from database
 C            1.33142869        0.02962483        4.86482625
 C            2.51698132       -0.13821523        4.05138789
 C            2.51982166       -1.50142084        3.54288951
 C            0.50767206       -1.15643991        4.69913717
 C            1.26409023       -2.12380232        3.91884246
 C           -0.79587893       -0.72839092        4.21085019
 C            0.48992728        1.18233883        4.62720219
 C           -0.86004894        0.70634893        4.35406752
 C            0.83207464        2.10346467        3.55768945
 C            2.73903286        0.75230978        2.92226677
 C            1.85347095        1.79348131        2.65232811
 C            2.88534563       -1.44770680        2.13596215
 C            3.20173250       -0.06502273        1.82199592
 C            2.16728274       -2.20096290        1.20318980
 C            0.58738296       -2.87167170        2.96714879
 C            1.19062453       -3.07835026        1.65763064
 C           -1.30719477       -1.32710458        3.06400002
 C           -0.81318087       -2.57783268        2.72555298
 C           -1.94342061       -0.55605986        2.07638099
 C           -1.37607537        1.48936193        3.25147096
 C           -0.43653900        2.57580721        3.04230847
 C           -1.91063894        0.84589177        2.13546697
 C           -0.44250678        3.20460871        1.81466557
 C            1.78335435        2.30293723        1.35033695
 C            0.79533045        3.23410867        1.05725366
 C            2.97602107        0.36540248        0.52802176
 C            2.41588165        1.62480111        0.29920750
 C            2.14193373       -1.77166645       -0.12897849
 C            2.83713016       -0.60586309       -0.44989467
 C            1.18441106       -2.27397047       -1.02884139
 C            0.11386368       -3.45595755        0.76670605
 C           -1.13538799       -3.12883629        1.43543961
 C            0.20664639       -3.17614060       -0.59228392
 C           -2.41909252       -1.17890109        0.91229533
 C           -2.12154894       -2.53156577        0.67402395
 C           -2.89302331       -0.38177598       -0.13847060
 C           -2.08095242        1.59125118        0.96543941
 C           -1.47929585        2.84255603        0.86875439
 C           -2.52479977        0.96468167       -0.19699085
 C            0.42726508        3.46616170       -0.32239314
 C           -1.01590688        3.29628655       -0.42276215
 C            2.22144619        2.02794363       -1.03212078
 C            1.21943463        2.96305995       -1.34514020
 C            2.91804079       -0.19984385       -1.76687342
 C            2.76674799        1.21665356       -2.03482668
 C            1.10504431       -1.72960790       -2.31821897
 C            2.13530551       -0.90756410       -2.75656811
 C           -0.10309033       -1.76897546       -3.02597755
 C           -0.97609117       -3.28946462       -1.32075114
 C           -2.22286152       -3.01504064       -0.62080487
 C           -1.07584594       -2.68192573       -2.63243973
 C           -3.47669225       -0.98958815       -1.24696964
 C           -3.11744708       -2.35731921       -1.53908935
 C           -2.47933772       -2.37255879       -2.84264208
 C           -3.49736207       -0.28774287       -2.51315223
 C           -2.82260530       -1.13055536       -3.49361002
 C           -2.40389984        1.62344528       -1.43351676
 C           -1.52788491        2.70401362       -1.56676404
 C           -2.89748258        1.02917782       -2.58974325
 C            0.65684195        2.99104885       -2.62117741
 C           -0.78458027        2.83951051       -2.73826592
 C            2.32626767        1.33658875       -3.40994383
 C            1.89517701        0.01445838       -3.84653947
 C            1.27294869        2.27194489       -3.71476611
 C           -0.43077663       -0.75495638       -3.94239082
 C           -1.75646097       -0.33899055       -4.06761791
 C           -2.07667621        1.04721176       -3.78718470
 C           -1.05749694        1.98294428       -3.88184658
 C            0.55136403        0.13310523       -4.36938780
 C            0.22475917        1.54926049       -4.41579481
