   70
C70 / DATE: 7/ 1/2024 / Origin: Program Fullerene / C70 from database
 C            1.28091021        0.03368893        4.99065996
 C            2.53633079        0.05242164        4.26150188
 C            2.62301017       -1.18461046        3.50323436
 C            0.51441772       -1.11093753        4.52242619
 C            1.33183761       -1.83946709        3.57026108
 C           -0.78541463       -0.63531442        4.08960927
 C            0.41778593        1.19813793        4.94084137
 C           -0.87966255        0.76989046        4.44216934
 C            0.83065449        2.35234592        4.16213920
 C            2.82716759        1.14814372        3.34903614
 C            1.99963661        2.26335365        3.30019669
 C            3.16060074       -0.87146490        2.18955710
 C            3.30861374        0.56922399        2.10800559
 C            2.64702211       -1.53734978        1.07751106
 C            0.75792776       -2.25762165        2.37669107
 C            1.58434800       -2.42300598        1.26813101
 C           -1.26329513       -1.04059609        2.84775374
 C           -0.61137751       -2.06777632        2.16886274
 C           -2.04754715       -0.15906836        2.11057297
 C           -1.29903358        1.70955084        3.41749555
 C           -0.29526077        2.75013032        3.33344668
 C           -1.81563674        1.21041826        2.22927312
 C            1.63707580        2.82130360        2.00909221
 C            0.21419513        3.09932203        2.01871568
 C            3.01848435        1.17654600        0.89391087
 C            2.17999943        2.29778938        0.84264376
 C            2.82777469       -0.95937078       -0.18461089
 C            3.14986020        0.40525495       -0.25670988
 C            2.36882240       -1.64553835       -1.31953419
 C            1.06249345       -3.09059309        0.17317312
 C            1.52016975       -2.73440295       -1.15690983
 C           -1.17825594       -2.53653073        0.98311967
 C           -0.37555937       -3.26546327        0.10661469
 C           -2.63005529       -0.61863799        0.93525704
 C           -2.32360562       -1.90729874        0.49078990
 C           -3.05564685        0.33108242        0.01059938
 C           -1.66959228        1.95973458        1.06255395
 C           -0.52316169        2.73897139        0.89287228
 C           -2.35717862        1.53387970       -0.06671577
 C            1.52372635        2.57565036       -0.35685751
 C            0.12968652        2.70475607       -0.34250684
 C            3.06157397        1.07242848       -1.46841918
 C            2.16295983        2.20770376       -1.53053840
 C            2.43582341       -1.05106777       -2.57646115
 C            2.90775691        0.30961831       -2.68402838
 C            1.31395035       -1.20594913       -3.49437895
 C            0.40152310       -2.90465389       -2.07363214
 C           -0.73858915       -3.36338485       -1.29719604
 C            0.22196106       -1.98374434       -3.10552436
 C           -2.87923915       -2.35789350       -0.70579395
 C           -2.01193862       -2.98905757       -1.68674385
 C           -3.82004099       -0.08202938       -1.07251744
 C           -3.78889545       -1.48592075       -1.43070390
 C           -3.76159643        0.68879836       -2.30175381
 C           -1.95036290        1.99877285       -1.31387948
 C           -0.61905872        2.39468986       -1.48442174
 C           -2.75189033        1.72699004       -2.41796683
 C            1.40422980        2.10760822       -2.75842680
 C            1.99087595        1.03507257       -3.54358750
 C            1.10048969        0.07040965       -4.16092888
 C            0.02012819        2.21758920       -2.72076817
 C           -2.12999020        1.57569895       -3.71329877
 C           -0.19756865        0.47018700       -4.42826823
 C           -0.68965999        1.68716091       -3.79638055
 C           -1.07222822       -1.63008137       -3.50994953
 C           -2.17577020       -2.26517451       -2.93354906
 C           -3.45036206       -1.57217454       -2.84152056
 C           -3.57408804       -0.24305278       -3.40423268
 C           -1.26092925       -0.50628986       -4.31816957
 C           -2.49133176        0.26119846       -4.22183384
