   70
C70 / DATE: 7/ 1/2024 / Origin: Program Fullerene / C70 from database
 C            1.41796225        0.14631713        5.12442888
 C            0.64305650       -1.03940187        4.80506074
 C            1.54542340       -1.97745004        4.18743437
 C            2.63294470        0.09513028        4.32731932
 C            2.77500573       -1.25953837        3.86056024
 C            2.55628002        1.15951737        3.34580299
 C            0.66016870        1.29856839        4.67707342
 C            1.52108063        2.07081524        3.80664289
 C           -0.52602377       -0.61948041        4.05888679
 C           -0.59998500        0.82997596        4.12952183
 C           -0.85094824       -1.24123329        2.85383174
 C            1.12415991       -2.64664788        2.97206222
 C           -0.08422280       -2.30363296        2.35322125
 C            3.01986469       -1.48511694        2.45126121
 C            2.31275444       -2.70976177        2.15141795
 C            2.64905661        0.87074366        1.97653390
 C            2.93123050       -0.42968457        1.53395920
 C            2.19265954        1.82359551        1.06515086
 C            0.90709407        2.87167492        2.86359288
 C            1.49325707        2.93226581        1.54455004
 C           -1.13359956        1.51685362        3.04282779
 C           -0.52262031        2.70304906        2.63998528
 C           -1.71398939       -0.57837075        1.99437277
 C           -1.87109383        0.80707171        2.09995074
 C           -2.14939924       -1.22669850        0.84642454
 C           -0.27152463       -2.71616657        1.02254968
 C           -1.31268573       -2.17172949        0.25300900
 C            2.14371523       -3.02840037        0.82636766
 C            0.79863867       -3.32222296        0.37438945
 C            2.76426920       -0.75645379        0.18049357
 C            2.67328909       -2.10287680       -0.15400483
 C            2.13619477        1.52382341       -0.29809098
 C            2.29997992        0.20393650       -0.72989035
 C            1.60399468        2.47323891       -1.16402752
 C            0.48674447        3.54619625        0.70570573
 C           -0.79869221        3.22377951        1.30670597
 C            0.62334293        3.41989205       -0.66128319
 C           -2.44400033        1.49738099        1.03709782
 C           -1.77390696        2.61250321        0.52053067
 C           -3.16114635       -0.63180563        0.10936112
 C           -3.34055090        0.80450405        0.23573883
 C           -3.33101755       -0.98420330       -1.28266312
 C           -1.35679662       -2.37836055       -1.14426901
 C           -2.39089081       -1.79744573       -1.90596401
 C            0.86840494       -3.25979470       -1.06156889
 C            2.04742747       -2.47404017       -1.39540536
 C           -0.27914129       -3.01021339       -1.79163278
 C            1.93406243       -0.17192096       -2.04498716
 C            1.91231699       -1.53431300       -2.40040583
 C            1.17110530        2.07590819       -2.48363893
 C            1.43388708        0.79516829       -2.94109422
 C           -0.57220891        3.25595760       -1.46549157
 C           -1.75267973        2.83565279       -0.86227490
 C           -0.15492903        2.63650565       -2.70799495
 C           -3.65949057        1.33114406       -1.07204212
 C           -3.79350904        0.20580297       -1.97729741
 C           -2.74103885        2.27900666       -1.66514227
 C           -1.07289622        1.90325802       -3.45443015
 C           -3.15417780        0.56344745       -3.22691384
 C           -2.39192406        1.78906783       -2.99399290
 C           -2.28798856       -1.71790953       -3.29841162
 C           -2.57748478       -0.45404098       -3.96720332
 C           -0.05335100       -2.74717901       -3.13583398
 C            1.11641378       -1.94567484       -3.46238304
 C           -1.14570155       -2.30170094       -3.95887102
 C            0.75559476        0.40403678       -4.09425866
 C           -0.56964693        0.95718375       -4.34478786
 C           -1.42729217       -0.12752707       -4.78024884
 C            0.73097262       -0.98844261       -4.46290426
 C           -0.61579835       -1.32353384       -4.89441445
