   70
C70 / DATE: 7/ 1/2024 / Origin: Program Fullerene / C70 from database
 C            1.57491218        0.02852654        4.70430648
 C            0.77513385       -1.15201920        4.44855205
 C            1.36939666       -1.87941437        3.33751978
 C            2.70310340       -0.00460715        3.79612924
 C            2.56562613       -1.16746606        2.93270093
 C            2.78676351        1.29772500        3.16819252
 C            0.76712351        1.18483567        4.35075842
 C            1.48778116        1.93156204        3.34219661
 C           -0.59992327       -0.71782028        4.31421765
 C           -0.56346978        0.71075716        4.03628424
 C           -1.43839198       -1.50388760        3.54274725
 C            0.52104836       -2.39671605        2.36443205
 C           -0.83308123       -2.49661489        2.66665550
 C            0.90995249       -2.37691191        1.02270808
 C            2.84328237       -1.01458133        1.57856786
 C            2.06820714       -1.68740847        0.63071800
 C            3.37161937        1.35872375        1.91507146
 C            3.55342268        0.11397199        1.18227804
 C            2.85545804        2.31854934        0.95832760
 C            0.80950954        2.38400042        2.21238378
 C            1.56559835        2.80989017        1.12006226
 C           -1.20530669        1.18477684        2.89411691
 C           -0.55453454        2.09277676        2.04171669
 C           -2.47037519       -0.85103191        2.76052182
 C           -2.32734605        0.49299867        2.43735961
 C           -1.77771179       -2.75581936        1.59967753
 C           -2.85679442       -1.78643264        1.72071098
 C            0.05262586       -2.90943067        0.05194785
 C           -1.31014356       -3.06710140        0.33050084
 C            0.50967485       -3.04722052       -1.25489763
 C            2.36254778       -1.53447967       -0.72975070
 C            1.70680612       -2.33469254       -1.65998910
 C            3.61360325        0.45271160       -0.22468801
 C            3.27414988        1.86226959       -0.35392726
 C            3.11184741       -0.43541168       -1.16585137
 C            2.56658091        2.27248635       -1.47956248
 C            0.92389198        3.35255694        0.01827334
 C            1.47044144        3.12500355       -1.31381339
 C           -1.22928261        2.58774175        0.91823423
 C           -0.52052885        3.26712209       -0.06831489
 C           -3.04272274        0.99186574        1.36053533
 C           -2.49087778        2.09450929        0.59843995
 C           -3.45194418       -1.30931068        0.55703225
 C           -3.66987320        0.06583185        0.42561536
 C           -2.23666280       -3.01604610       -0.70754830
 C           -3.36475753       -2.10577968       -0.58252392
 C           -0.43399796       -2.99469540       -2.36033290
 C           -1.79194625       -2.99904717       -2.08924697
 C            1.49628537       -1.84591591       -3.01351239
 C            0.09851201       -2.07317480       -3.35496975
 C            2.92736911        0.05720930       -2.45498264
 C            2.65538909        1.47697018       -2.61966283
 C            2.11600267       -0.67331328       -3.41164069
 C            1.67596561        1.62264565       -3.67844951
 C            1.35420969        0.29499339       -4.17598596
 C            0.34981786        3.08380486       -2.24539774
 C           -0.87429197        3.06407441       -1.46615738
 C            0.43414817        2.31222792       -3.39117270
 C           -2.84249216        1.89275163       -0.80013800
 C           -3.66039285        0.69720974       -0.88838381
 C           -1.89756930        2.17406430       -1.78417900
 C           -3.61636660       -1.52696578       -1.88758518
 C           -2.65329367       -2.08998884       -2.81990747
 C           -3.59358466       -0.08479036       -2.02823071
 C           -0.69127246       -1.02580833       -3.84694718
 C           -0.08973059        0.17271599       -4.21752788
 C           -0.66047554        1.41826131       -3.72604054
 C           -1.80028673        1.36257243       -2.92384930
 C           -2.05096009       -0.99447012       -3.55387191
 C           -2.62741881        0.24767991       -3.06045300
