   70
C70 / DATE: 7/ 1/2024 / Origin: Program Fullerene / C70 from database
 C            1.29548830        0.05948430        4.78816546
 C            2.49586081       -0.14853999        4.00614781
 C            2.51388474       -1.54039436        3.58911279
 C            0.46156560       -1.12354174        4.64507835
 C            1.23569282       -2.13270287        3.94500640
 C           -0.81098130       -0.70228069        4.07850679
 C            0.47078529        1.20857680        4.48781904
 C           -0.87899062        0.73106488        4.22104403
 C            0.83510530        2.07273167        3.37882816
 C            2.72710320        0.66884032        2.82402041
 C            1.85805852        1.70973469        2.50012532
 C            2.94478878       -1.58063749        2.20010035
 C            3.17932724       -0.21451570        1.76814067
 C            2.32222259       -2.45657012        1.31521412
 C            0.59050322       -2.91754475        3.00211931
 C            1.29630838       -3.27847957        1.78643120
 C           -1.25169956       -1.29726655        2.89800750
 C           -0.76225747       -2.56240261        2.59612334
 C           -1.83903902       -0.52198945        1.88199343
 C           -1.39607801        1.50608566        3.11738078
 C           -0.41782518        2.53232108        2.81942546
 C           -2.00071733        0.86295900        2.04117370
 C           -0.41620984        3.03087097        1.53181270
 C            1.77425237        2.13810111        1.17195055
 C            0.79107719        3.06957756        0.83936547
 C            2.89146556        0.11479046        0.45271654
 C            2.36755180        1.37556838        0.15562871
 C            2.40122924       -2.19201599       -0.05452756
 C            2.76926498       -0.91042594       -0.47999228
 C            1.76171176       -3.05999209       -0.93937689
 C            0.27781139       -3.74036097        0.86233748
 C           -0.96898756       -3.11478782        1.27420019
 C            0.57881628       -3.77032135       -0.48763450
 C           -2.15168028       -1.10800688        0.64590237
 C           -1.69544623       -2.39597066        0.33533069
 C           -2.77414206       -0.34176299       -0.34559304
 C           -2.25878855        1.64402340        0.91368593
 C           -1.57655848        2.86159850        0.79110763
 C           -2.82577249        1.04704995       -0.21161310
 C           -1.70131383        3.61956946       -0.36287276
 C            0.78729479        3.61033707       -0.44088055
 C           -0.47685657        4.08971183       -0.98291501
 C            2.20235630        1.74732521       -1.18530245
 C            1.47359131        2.89204438       -1.49881337
 C            2.71017020       -0.57306815       -1.82554558
 C            2.39434859        0.79683502       -2.18760453
 C            1.53187201       -2.66112055       -2.31950440
 C            2.04226912       -1.45303011       -2.76829146
 C           -0.47650617       -3.46858120       -1.43651043
 C           -1.61817692       -2.79719659       -0.99718667
 C            0.17195642       -3.04572789       -2.66638444
 C           -3.07772914       -0.93053494       -1.57495079
 C           -2.43507186       -2.18075198       -1.93332650
 C           -3.14625037       -0.11101771       -2.77627807
 C           -3.14923469        1.83578634       -1.31447809
 C           -2.58666733        3.16836496       -1.41293559
 C           -3.07316140        1.26315985       -2.64283053
 C           -0.52887475        3.73637202       -2.38996412
 C            0.59894751        2.87119772       -2.66405010
 C           -1.85805356        3.24817612       -2.67218400
 C           -1.99776426        1.96444645       -3.32525321
 C            1.47233986        0.75979825       -3.31354117
 C            1.26270704       -0.62859341       -3.67905562
 C            0.41877799        1.66965443       -3.34867614
 C           -0.86853682        1.24503811       -3.72586640
 C           -0.55404329       -2.28686533       -3.57433827
 C           -1.96207778       -2.06235940       -3.30295202
 C           -2.30264201       -0.73636002       -3.77817534
 C            0.00269955       -1.04051872       -4.08348205
 C           -1.07107133       -0.06495937       -4.16111560
