   70
C70 / DATE: 7/ 1/2024 / Origin: Program Fullerene / C70 from database
 C            1.44595700        0.08029731        4.90322380
 C            0.65140934       -1.12448289        4.72672165
 C            1.48646340       -2.10971315        4.08170882
 C            2.66455343       -0.08166395        4.13035937
 C            2.76316462       -1.47829362        3.77714052
 C            2.65416254        0.90116571        3.05829655
 C            0.70204014        1.18346004        4.32461428
 C            1.49811591        1.75856022        3.26389985
 C           -0.58765141       -0.74399604        4.07962243
 C           -0.61695844        0.70140521        3.98006846
 C           -1.06575001       -1.47211222        2.99203636
 C            1.00751576       -2.73464390        2.86136162
 C           -0.23613430       -2.40210037        2.34209068
 C            3.08398068       -1.80543587        2.40655788
 C            2.12872120       -2.79988370        1.94979360
 C            2.97749670        0.51128662        1.75274439
 C            3.43658006       -0.79452997        1.51633733
 C            2.48884907        1.28478187        0.68619989
 C            0.84018110        2.23313173        2.14118185
 C            1.55088758        2.28605319        0.95327464
 C           -1.24247604        1.24020402        2.86448869
 C           -0.55768503        2.17703005        2.08027380
 C           -2.11923879       -0.91101702        2.27033773
 C           -2.24160350        0.48429264        2.26205422
 C           -2.66244009       -1.66169867        1.23386618
 C           -0.48929379       -2.72356355        1.00929739
 C           -1.79063443       -2.59144500        0.54369413
 C            1.89708403       -2.86863547        0.57821370
 C            0.57657542       -2.78478751        0.09767125
 C            3.63332646       -1.20307044        0.20577114
 C            2.93279758       -2.40312496       -0.22326892
 C            2.75855354        0.91103864       -0.63654607
 C            3.49679411       -0.24153671       -0.86575829
 C            2.07316931        1.52300269       -1.69775798
 C            1.00399953        3.01797402       -0.08538291
 C            1.37026976        2.69732157       -1.44838360
 C           -1.19795308        2.70364717        0.95081840
 C           -0.42469971        3.28360954       -0.05451783
 C           -3.03144136        1.11480320        1.31153506
 C           -2.50015338        2.29840317        0.65875547
 C           -3.52153736       -1.03346023        0.24664939
 C           -3.74619418        0.33279166        0.31997201
 C           -2.02604168       -2.44100364       -0.87683208
 C           -3.23321671       -1.65075301       -1.03864178
 C            0.33462729       -2.57318197       -1.27401084
 C           -0.94087239       -2.22146994       -1.71453931
 C            2.73755318       -2.30851850       -1.64752547
 C            3.23910646       -1.00790599       -2.06400652
 C            1.39380522       -2.43961286       -2.16162902
 C            1.89798761        0.84975170       -2.91947799
 C            2.30042657       -0.47657991       -3.02211719
 C            1.27317786       -1.48372359       -3.24082865
 C            0.87303506        1.23686831       -3.78082789
 C            0.25133543        3.07045187       -2.29356074
 C           -0.90086754        3.29201494       -1.42943481
 C            0.07968418        2.42048001       -3.50209324
 C           -2.97376949        2.29667394       -0.71761379
 C           -3.81168952        1.11809287       -0.90054572
 C           -2.13093435        2.71680294       -1.74459413
 C           -3.40096849       -0.92157420       -2.20583782
 C           -3.81852294        0.47181772       -2.12938467
 C           -1.10780143       -1.48740918       -2.89943070
 C            0.01188484       -1.03932543       -3.61666801
 C           -0.03537781        0.20328532       -4.24544815
 C           -2.37927397       -1.01085005       -3.23347930
 C           -1.27018546        2.17092929       -3.97931674
 C           -2.37873190        2.29552535       -3.05003425
 C           -3.25489511        1.15866110       -3.27639853
 C           -1.30932190        0.82547794       -4.53218120
 C           -2.51095637        0.18000988       -4.05255839
