   70
C70 / DATE: 7/ 1/2024 / Origin: Program Fullerene / C70 from database
 C            1.20097530       -0.13486164        4.44820538
 C            2.49480371       -0.35284965        3.83047014
 C            2.46733072       -1.65981396        3.20122981
 C            0.36223619       -1.28437425        4.14440054
 C            1.11523955       -2.17711036        3.29536423
 C           -0.90766215       -0.79546700        3.66274123
 C            0.45524705        1.06400756        4.10849576
 C           -0.87928050        0.65903325        3.70515628
 C            1.08369383        2.08448056        3.41359414
 C            2.97329026        0.60215669        2.84669468
 C            2.36660535        1.84363985        2.75528746
 C            3.05179602       -1.53252415        1.87839510
 C            3.27638308       -0.12142177        1.62171761
 C            2.51726537       -2.29179869        0.85147822
 C            0.53283826       -2.66535779        2.13193243
 C            1.38888305       -3.07044802        1.11529244
 C           -1.51300082       -1.41221516        2.57370794
 C           -0.79180810       -2.33687889        1.80089055
 C           -2.58379928       -0.74062491        2.00197669
 C           -1.56507982        1.36603886        2.71557444
 C           -2.61542145        0.71185875        2.08524911
 C            0.29288861        2.90672129        2.51799234
 C           -0.95800346        2.45982143        2.08325843
 C            2.30503470        2.49027605        1.46054297
 C            1.22266020        3.45033262        1.54702737
 C            2.89876070        0.40692173        0.38137324
 C            2.44424413        1.72861301        0.29794359
 C            2.71928269       -1.84885688       -0.44865467
 C            2.69798085       -0.46796057       -0.69402980
 C            2.46478179       -2.75113465       -1.47239960
 C            0.85547818       -3.82782754        0.08529320
 C            1.55789873       -3.84683564       -1.18585610
 C           -1.30679650       -2.77529295        0.56903844
 C           -0.56279982       -3.68432965       -0.18964499
 C           -3.05987187       -1.12581503        0.69201378
 C           -2.39739293       -2.11776744       -0.01395190
 C           -3.13584859        1.22036429        0.83499059
 C           -3.48639170        0.08113380       -0.00237100
 C           -1.47145637        2.96574473        0.87845186
 C           -2.55961769        2.33771430        0.25016624
 C            0.70916618        3.95433357        0.37161768
 C           -0.72854509        3.93837064        0.20100705
 C            1.85477062        2.19172508       -0.88098265
 C            1.25095773        3.44965585       -0.87499545
 C            2.18001988        0.02987147       -1.89644615
 C            1.58705196        1.29220204       -1.91685825
 C            2.15507155       -2.25472755       -2.79323847
 C            1.92219399       -0.83623548       -2.95707052
 C            0.56757676       -3.89899957       -2.24402982
 C           -0.74161968       -3.74742326       -1.63223574
 C            0.97739862       -2.96306898       -3.27369254
 C           -2.60079159       -2.17962001       -1.38885963
 C           -1.68295464       -2.92355577       -2.23042819
 C           -3.33539787        0.17123516       -1.38655826
 C           -2.98091905       -0.97175338       -2.10448018
 C           -2.83406651        2.56209196       -1.09771192
 C           -3.10201398        1.42229283       -1.96073138
 C           -0.94681973        4.17405848       -1.21103342
 C            0.27925230        3.78265722       -1.89618201
 C           -2.04781359        3.50707122       -1.86191102
 C            0.55604207        1.54100053       -2.83412526
 C           -2.19626798        1.51954562       -3.09771974
 C           -0.07101925        2.77794089       -2.87311779
 C           -1.51107307        2.79572065       -3.00952739
 C            0.68313933       -0.67700690       -3.69588127
 C            0.02586493       -1.97148182       -3.73740556
 C           -1.30240067       -2.05988744       -3.34349789
 C           -2.07895630       -0.83877610       -3.23682704
 C           -0.07013588        0.46547070       -3.46076093
 C           -1.46907834        0.39000014       -3.45535446
