   70
C70 / DATE: 7/ 1/2024 / Origin: Program Fullerene / C70 from database
 C            1.25941633        0.02255486        4.20161059
 C            2.46951945       -0.21181208        3.43465296
 C            2.43388959       -1.60643769        3.01391624
 C            0.41157244       -1.14984491        4.04132007
 C            1.04782430       -2.02508720        3.08537447
 C           -0.92240104       -0.69290426        3.75098656
 C            0.45693860        1.19764114        3.91805130
 C           -0.91179632        0.75962429        3.70890096
 C            0.97778910        2.18867698        3.10567420
 C            2.93154883        0.76509947        2.54992608
 C            2.26320578        1.98577958        2.44743017
 C            3.79738156        0.39083652        1.52477179
 C            3.18323815       -1.99409640        1.91875458
 C            4.07545720       -1.01915961        1.32122797
 C            2.51272979       -2.68806174        0.83214368
 C            0.37196600       -2.35192264        1.90888585
 C            1.11447963       -2.71239901        0.78038980
 C           -1.66997201       -1.35031466        2.78789786
 C           -1.00164064       -2.08594830        1.78879798
 C           -2.87338020       -0.73884653        2.47648928
 C           -1.72333348        1.39040979        2.76237185
 C           -2.88005590        0.71296420        2.38630647
 C            0.09946478        2.85894660        2.16389117
 C           -1.15452509        2.31537420        1.87664057
 C            2.20239991        2.65239895        1.15636366
 C            0.93392489        3.35828859        1.08557017
 C            3.65937378        1.01106177        0.21351278
 C            2.70073731        1.99908586        0.03088148
 C            4.11224386       -1.26800731       -0.10794415
 C            3.27096537       -2.41880946       -0.37846210
 C            3.81817013       -0.02061860       -0.79321336
 C            2.60820330       -2.46462707       -1.59142049
 C            0.47731538       -2.88651629       -0.44906800
 C            1.24355735       -2.94806153       -1.61418084
 C           -1.65356848       -2.38560414        0.58210602
 C           -0.90617047       -2.73311547       -0.54596376
 C           -3.66922353       -1.26347249        1.39723127
 C           -3.01725803       -2.12120047        0.43781494
 C           -3.55184175        1.06563820        1.15391542
 C           -4.22209618       -0.13180789        0.67273092
 C           -1.73549996        2.55247482        0.62129062
 C           -2.90733337        1.89098567        0.24287141
 C            0.36089969        3.58158458       -0.15171811
 C           -1.05898081        3.33550653       -0.31471204
 C            2.00441318        2.07457812       -1.17886313
 C            1.02101433        3.05198621       -1.33071390
 C            2.95195194       -0.04730477       -1.87952850
 C            2.63050930       -1.28441139       -2.44089817
 C            2.13591306        1.05756732       -2.13511961
 C            0.67291596       -2.49726684       -2.87063136
 C            1.50029981       -1.39681034       -3.34815106
 C           -1.50764921       -2.71837250       -1.80701831
 C           -0.70556172       -2.42190844       -2.97914579
 C           -3.54277532       -1.76012165       -0.86712848
 C           -4.16080197       -0.44697299       -0.74235688
 C           -2.78751808       -2.05997784       -1.98885311
 C           -3.25540314        1.80293435       -1.10667609
 C           -3.80943576        0.56212085       -1.62941239
 C           -1.29002083        3.11982981       -1.73170000
 C            0.00697693        2.91216412       -2.36069090
 C           -2.38052809        2.35889313       -2.12410667
 C            1.30208927        1.03788365       -3.25357272
 C            0.90238718       -0.23807433       -3.82167364
 C            0.15968817        1.93125903       -3.32782433
 C           -1.31909546       -1.28710161       -3.65222839
 C           -2.62035060       -1.06535347       -3.03941786
 C           -3.08377277        0.23156285       -2.84486985
 C           -2.23374645        1.36526813       -3.17719878
 C           -0.53616069       -0.20192177       -4.03327176
 C           -0.99047427        1.15329353       -3.76296660
