   70
C70 / DATE: 7/ 1/2024 / Origin: Program Fullerene / C70 from database
 C            1.55979286        0.00626337        4.59938436
 C            0.77319498       -1.20722912        4.49508034
 C            1.27468739       -1.98178491        3.37199549
 C            2.60402319       -0.06741849        3.59971388
 C            2.48221868       -1.33175708        2.89700245
 C            2.53728722        1.14260030        2.80672322
 C            0.69458500        1.12009456        4.24449988
 C            1.25339235        1.76608109        3.07765351
 C           -0.61654133       -0.81254436        4.47856464
 C           -0.65285054        0.61274354        4.16067563
 C           -1.50972018       -1.64426887        3.82412838
 C            0.36413147       -2.48637751        2.44477414
 C           -0.99441731       -2.52897130        2.78197218
 C            0.74132914       -2.59601374        1.10046655
 C            2.75011483       -1.32700990        1.53545136
 C            2.00429353       -2.14719928        0.68883619
 C            2.93196235        1.05665517        1.48358861
 C            3.33835227       -0.18707711        0.99747878
 C            2.36874513        1.95331306        0.58535669
 C            0.42527674        2.07187091        1.99628848
 C            1.02953791        2.31826730        0.76005125
 C           -1.48216730        1.04861834        3.12951046
 C           -0.94591741        1.77222974        2.04729609
 C           -2.72132335       -1.04159692        3.31031586
 C           -2.67758494        0.36506117        2.95825424
 C           -1.98860940       -2.58791537        1.72102296
 C           -3.11099797       -1.77573442        2.12142585
 C           -0.23667323       -2.87624812        0.14425243
 C           -1.55465407       -2.52854060        0.40546535
 C            0.13360521       -3.10390566       -1.16887486
 C            2.34941931       -2.19804410       -0.66690657
 C            1.50455425       -2.85006544       -1.56076836
 C            3.81409017       -0.25573474       -0.30323709
 C            3.32791518       -1.32736725       -1.15660143
 C            2.95455492        2.04920841       -0.66620034
 C            3.82087436        0.96414060       -1.09017326
 C            2.14658267        2.43718194       -1.79927795
 C            0.23600068        2.63810439       -0.34495977
 C            0.83042879        2.82809484       -1.60457047
 C           -1.74587612        2.05259381        0.92771083
 C           -1.15910155        2.64454240       -0.20313730
 C           -3.40236056        0.51161507        1.72246079
 C           -3.62100623       -0.81681366        1.17157987
 C           -3.03933369        1.50804517        0.83488379
 C           -2.28111838       -1.81189987       -0.56116301
 C           -3.35894245       -0.99479880       -0.18284113
 C           -0.73189747       -2.59470924       -2.21703502
 C           -1.76865904       -1.73584148       -1.86339316
 C            1.48830134       -2.44765935       -2.95632218
 C            0.10115079       -2.26557180       -3.35186113
 C            3.23150999       -0.80360024       -2.51483384
 C            3.48219762        0.62076289       -2.45917352
 C            2.44281421        1.52995925       -2.90015585
 C            2.22917025       -1.26657163       -3.35219798
 C           -0.02988473       -0.95158378       -3.93999944
 C            1.38697569        1.05191519       -3.67557170
 C            1.28418487       -0.32072385       -3.93876005
 C            0.03578252        2.86372350       -2.74045696
 C            0.23581216        1.83480350       -3.74921590
 C           -1.96592173        2.99966869       -1.28522970
 C           -1.38387805        3.08241979       -2.60566707
 C           -3.62781310        1.40500382       -0.41646923
 C           -3.70481783        0.07496404       -1.00143419
 C           -3.23118581        2.32491600       -1.44917335
 C           -2.05879375       -0.62483860       -2.66730026
 C           -1.13975144       -0.17608059       -3.63277535
 C           -1.04629306        1.18112085       -3.92277308
 C           -2.05720409        2.10136626       -3.44614197
 C           -3.15727963        0.16361587       -2.33869202
 C           -3.16627427        1.57193239       -2.69052002
