   70
C70 / DATE: 7/ 1/2024 / Origin: Program Fullerene / C70 from database
 C            1.07012181       -0.05198134        5.33323233
 C            0.40022676       -1.21826999        4.79290521
 C            1.40847125       -2.04039004        4.16380563
 C            2.42158269       -0.02888508        4.78899971
 C            2.61111236       -1.23684046        4.01526629
 C            2.60361708        1.24175917        4.12750847
 C            0.37422356        1.12282983        4.83864426
 C            1.37340155        2.00625192        4.29213908
 C           -0.71698401       -0.76510344        3.97926153
 C           -0.70513332        0.68567186        3.96712903
 C           -0.99898756       -1.41939783        2.78487015
 C            1.10493324       -2.58343205        2.86143977
 C           -0.18569736       -2.47739390        2.36277385
 C            2.89607740       -1.14027815        2.58678152
 C            2.18031159       -2.22573872        1.95940798
 C            2.93790225        1.26790594        2.70961811
 C            2.91572067        0.09825503        1.94989995
 C            1.09741565        2.62490169        3.01711784
 C            2.26706043        2.42994988        2.18709836
 C           -0.92754268        1.34057869        2.75088105
 C           -0.14641280        2.45424885        2.40666247
 C           -1.74280213       -0.73488096        1.81813065
 C           -1.62355253        0.65812117        1.74195001
 C           -2.18458006       -1.45225977        0.70462426
 C           -0.36317262       -2.90758560        1.06123311
 C           -1.60840145       -2.70726267        0.49728893
 C            1.84850463       -2.13272918        0.61607995
 C            0.73832252       -2.85671771        0.20420383
 C            2.57241485        0.17806043        0.59042097
 C            2.15917304       -0.97197412       -0.09678268
 C            2.05099233        2.51832955        0.83011428
 C            2.37909748        1.43663036        0.00879249
 C           -0.25108274        2.95376844        1.11004623
 C            0.94787788        3.25855172        0.46037188
 C           -1.89959485        1.31515912        0.53891652
 C           -1.34766425        2.58026467        0.33397414
 C           -2.73274582       -0.75826314       -0.38009265
 C           -2.43461558        0.59640208       -0.53877901
 C           -3.21481365       -1.48099510       -1.47349563
 C           -1.84603870       -3.37555355       -0.68939860
 C           -2.89852098       -2.89133651       -1.54717408
 C            0.49747226       -2.96368843       -1.15695553
 C           -0.68412924       -3.60675572       -1.52378836
 C            1.67759584       -0.86473670       -1.40829564
 C            1.03065859       -1.96812571       -1.98458880
 C            2.02754731        1.53768352       -1.34468858
 C            1.65070304        0.38328951       -2.05411331
 C            0.90636458        3.65473749       -0.85589865
 C            1.60346996        2.79557541       -1.79457175
 C           -1.52089571        3.21822814       -0.89006193
 C           -0.38748394        3.94946284       -1.42223171
 C           -2.46640471        1.16067848       -1.81964757
 C           -2.12629475        2.49389427       -1.99145077
 C           -3.05976935       -0.92940925       -2.81051065
 C           -2.47423156        0.32474667       -2.94058215
 C           -2.52225360       -3.21508309       -2.91199113
 C           -1.11700730       -3.59618865       -2.90208019
 C           -2.63815707       -2.00399166       -3.69676778
 C            0.68425996       -1.92171893       -3.32971768
 C           -0.41411760       -2.73857479       -3.82806095
 C           -1.39546944       -1.84282186       -4.41899079
 C            1.10235945        0.49629694       -3.34942667
 C           -1.55022564        0.55037435       -3.97576357
 C            0.56361414       -0.63023985       -3.96535816
 C           -0.80700961       -0.52602581       -4.43794182
 C            0.92407298        2.91958876       -3.06209980
 C           -0.29222621        3.69029299       -2.84228080
 C           -1.41269468        2.84669604       -3.20145770
 C            0.55266762        1.71265136       -3.75137065
 C           -0.88263322        1.76279258       -3.99517409
