   70
C70 / DATE: 7/ 1/2024 / Origin: Program Fullerene / C70 from database
 C            1.13498072       -0.17220546        4.95460820
 C            2.34551405       -0.40607723        4.18863873
 C            2.19915096       -1.68626528        3.51267739
 C            0.28172212       -1.33826524        4.78970592
 C            0.83550625       -2.13226772        3.71138658
 C           -1.08147276       -0.87412358        4.67530978
 C            0.32965549        1.00350248        4.67031328
 C           -1.05859844        0.58208760        4.64093732
 C            0.77009536        1.93438233        3.73615357
 C            2.75467041        0.56907766        3.19404775
 C            2.05193316        1.75774838        3.06312319
 C            2.67671642       -1.52789531        2.15006835
 C            3.13194949       -0.15883991        1.99660711
 C            1.94950377       -2.09428578        1.10531012
 C            0.06813285       -2.40839555        2.58251133
 C            0.72808142       -2.71006522        1.39147474
 C           -1.87279505       -1.31210693        3.54235626
 C           -1.30496107       -2.11608966        2.55363611
 C           -1.90673470        1.00087237        3.53465828
 C           -2.66215473       -0.17058104        3.13053954
 C           -0.16720864        2.47211070        2.76051739
 C           -1.39390243        1.84928788        2.55245659
 C            1.94292834        2.36720042        1.74967180
 C            0.60676811        2.91105681        1.61811080
 C            2.98080277        0.43126874        0.74741533
 C            2.50239535        1.74391098        0.63669542
 C            2.19168393       -1.63033112       -0.19221699
 C            2.86240234       -0.41436030       -0.35174189
 C            1.49923914       -2.19956419       -1.26721853
 C           -0.00699582       -3.25580697        0.35343443
 C            0.47909166       -3.11028582       -1.00521840
 C           -2.00664452       -2.27145684        1.35370313
 C           -1.43990461       -3.02666512        0.33339687
 C           -3.21674144       -0.18952377        1.86441470
 C           -3.02379358       -1.36994558        1.03820075
 C           -1.94283308        1.82023747        1.26626185
 C           -3.00040757        0.95459424        0.99986190
 C            0.03470125        2.89143345        0.35789210
 C           -1.27033009        2.41814286        0.19417031
 C            2.11316744        2.20231016       -0.62690329
 C            0.89115049        2.87925019       -0.73920359
 C            2.97384342        0.15031929       -1.61049640
 C            2.64461801        1.55505166       -1.73993190
 C            1.61635217       -1.65906860       -2.55198118
 C            2.42273912       -0.54363380       -2.75570756
 C            0.70097838       -2.03176081       -3.53722870
 C           -0.68263219       -3.14435452       -1.87269464
 C           -1.82072804       -2.77199900       -1.04846864
 C           -0.57462779       -2.59679245       -3.13742663
 C           -3.21280859       -0.95129350       -0.34325608
 C           -3.21636905        0.49986067       -0.36026818
 C           -2.55235813       -1.62639385       -1.36335131
 C           -1.76307897        2.25364961       -1.10492124
 C           -2.56041169        1.14330844       -1.39533471
 C            0.33474295        3.12284007       -1.98927660
 C           -1.08804118        2.88620563       -2.14671526
 C            2.06272947        1.76019460       -3.05437961
 C            2.03962985        0.46788631       -3.73016407
 C            0.99808639        2.63944579       -3.18609915
 C            0.42182476       -1.12652132       -4.64230579
 C            1.05394692        0.17943375       -4.66738394
 C           -1.57857743       -1.63872779       -3.54969054
 C           -2.28690580       -0.95489275       -2.56124801
 C           -2.36210319        0.44699944       -2.58735145
 C           -1.02015062       -0.92270902       -4.67977560
 C           -1.31537437        2.44186283       -3.51081495
 C           -0.02635526        2.38890181       -4.18374585
 C            0.01841046        1.15831241       -4.95218726
 C           -1.96735932        1.16449842       -3.71376472
 C           -1.26648507        0.49630561       -4.79179425
