   70
C70 / DATE: 7/ 1/2024 / Origin: Program Fullerene / C70 from database
 C            1.37696178       -0.15274270        4.50044334
 C            2.62316305       -0.32524335        3.77627474
 C            2.54822747       -1.58310515        3.05601077
 C            0.52210678       -1.29102025        4.19904933
 C            1.21747066       -2.13176548        3.24858259
 C           -0.78932914       -0.78689392        3.84214408
 C            0.59724417        1.05372657        4.28761327
 C           -0.78054126        0.65055320        4.05593133
 C            1.13995547        2.10385403        3.55327270
 C            3.03970301        0.69750908        2.83481254
 C            2.39804350        1.92796350        2.83427115
 C            3.00466522       -1.35408948        1.69298281
 C            3.32838870        0.05384965        1.56123597
 C            2.32225451       -1.97816090        0.65716073
 C            0.53771697       -2.58049245        2.12545883
 C            1.28111946       -2.84299878        0.98295839
 C           -1.43378579       -1.29991013        2.71847367
 C           -0.83243590       -2.33456445        1.98705734
 C           -2.47965438       -0.56744609        2.15409621
 C           -1.60943296        1.44644098        3.27623072
 C           -2.53858311        0.80901869        2.36058073
 C            0.27092229        2.94000834        2.73838377
 C           -1.07199327        2.62264268        2.60711195
 C            2.29950366        2.66088181        1.58752883
 C            1.01903983        3.34645827        1.56379650
 C            3.01313915        0.71215154        0.37351885
 C            2.75886505        2.08690068        0.40503592
 C            2.34206089       -1.40293438       -0.61346905
 C            2.64072562       -0.03865125       -0.75036706
 C            1.77049272       -2.11211285       -1.67370886
 C            0.67361632       -3.55901455       -0.03095704
 C            1.05505430       -3.27604920       -1.40040550
 C           -1.49440183       -2.88054418        0.88189028
 C           -0.77173743       -3.68474214       -0.00028365
 C           -3.15677052       -1.08537402        1.05941516
 C           -2.70901122       -2.33315808        0.47297676
 C           -3.50430437       -0.18633757       -0.02975074
 C           -2.70645150        1.68395033        1.21109795
 C           -1.69857804        2.72285337        1.29842191
 C           -2.99184567        1.11012035       -0.02193209
 C            0.38266297        3.48870746        0.33415361
 C           -0.92800373        3.01103450        0.17679593
 C            2.41659225        2.73311427       -0.77595345
 C            1.21566570        3.55522477       -0.77688462
 C            2.46607843        0.60300654       -1.98021168
 C            2.43073208        1.99234255       -2.01998878
 C            1.62885233       -1.50650175       -2.91733407
 C            1.97732788       -0.10914769       -3.07207851
 C            0.43655897       -1.76055029       -3.71719342
 C           -0.07301003       -3.63530303       -2.24137270
 C           -1.22145010       -3.84344800       -1.37313678
 C           -0.46714572       -2.73073157       -3.30363483
 C           -3.06775810       -2.30463575       -0.94055875
 C           -3.52191336       -0.95960500       -1.25911371
 C           -2.30646599       -3.01519642       -1.85895653
 C           -1.86096439       -2.37030928       -3.08576002
 C           -3.12656985       -0.35479326       -2.44342749
 C           -2.29970495       -1.08585534       -3.39243221
 C           -2.38990990        1.62082652       -1.17581872
 C           -1.38404194        2.59147341       -1.07932715
 C           -2.65325639        1.01761962       -2.40634695
 C            0.63786126        3.49780381       -2.10044864
 C            1.49377800        2.65069007       -2.91438641
 C           -0.71208415        3.00146933       -2.22874075
 C            0.98657794        0.50331360       -3.94924371
 C           -0.05241988       -0.48055050       -4.19924625
 C           -1.38646009       -0.13515152       -4.00940095
 C           -1.72586913        1.18967687       -3.51112765
 C            0.63554769        1.83122155       -3.74860207
 C           -0.74279201        2.16272280       -3.41316789
