   70
C70 / DATE: 7/ 1/2024 / Origin: Program Fullerene / C70 from database
 C            1.28788641       -0.00889434        4.68802897
 C            2.58791420       -0.28495316        4.10583222
 C            2.57229481       -1.64668607        3.60243703
 C            0.47110461       -1.20049514        4.54341650
 C            1.23484989       -2.18258872        3.79229958
 C           -0.82675476       -0.79474398        4.03736247
 C            0.52341243        1.11731704        4.18282084
 C           -0.75086576        0.61646661        3.69436578
 C            1.17172387        2.09443588        3.44632186
 C            3.07158467        0.57621913        3.04166723
 C            2.48252361        1.81608443        2.85929438
 C            3.13274275       -1.63554644        2.26417721
 C            3.32128614       -0.24826055        1.87071675
 C            2.62252588       -2.52192138        1.33468296
 C            0.61969723       -2.85168823        2.73593607
 C            1.39102257       -3.23880996        1.64098472
 C           -1.48829469       -1.64897288        3.17562902
 C           -0.76670907       -2.78063101        2.60729226
 C           -2.28771401       -1.07839184        2.11077800
 C           -1.24363449        1.06550072        2.46234761
 C           -2.04517455        0.22537233        1.68589056
 C            0.41381088        2.81758723        2.44406668
 C           -0.74981172        2.25182615        1.91490143
 C            2.46737687        2.38147612        1.52439138
 C            1.39871576        3.35728156        1.53140044
 C            2.88691789        0.18834512        0.61254248
 C            2.59862217        1.54071817        0.41533389
 C            2.53550691       -2.10262943       -0.04921622
 C            2.52759202       -0.74569210       -0.36195054
 C            0.75348113       -3.55770015        0.37243844
 C            1.56877853       -2.97209943       -0.68363820
 C           -1.40146349       -3.10009049        1.33749457
 C           -2.45488601       -2.11765142        1.11829402
 C           -0.63490969       -3.52532031        0.25383667
 C           -2.75790261       -1.75164581       -0.18151665
 C           -2.34380500        0.56745635        0.36488707
 C           -2.90608021       -0.39665362       -0.48117171
 C           -1.17638020        2.67178994        0.65066459
 C           -1.96082188        1.81715465       -0.13944982
 C            0.95104449        3.81533703        0.31457592
 C           -0.46711465        3.71085820        0.04698148
 C            2.09111753        1.97787177       -0.81263349
 C            1.58179694        3.27571317       -0.87059568
 C            1.87526637       -0.32850100       -1.52456533
 C            1.70680499        1.03831204       -1.78194975
 C            0.94245987       -2.53744884       -1.83867971
 C            1.27873550       -1.28533208       -2.35529047
 C           -1.18325368       -3.41560258       -1.02261848
 C           -2.39011399       -2.62736171       -1.19513537
 C           -0.30769821       -3.06956600       -2.12771898
 C           -2.42974289       -2.17529407       -2.57417705
 C           -1.12116363       -2.45316295       -3.16020164
 C           -3.30174170       -0.04071714       -1.76368550
 C           -3.06898731       -0.97461533       -2.85606431
 C           -2.29922695        2.17944351       -1.45494112
 C           -3.02562416        1.29605960       -2.24758689
 C           -0.59479746        3.93388539       -1.37378975
 C            0.71360501        3.65601350       -1.95972378
 C           -1.55916108        3.15739449       -2.11315790
 C            1.08930348        1.45986678       -2.97244066
 C            0.50124620        2.71983620       -3.03585235
 C           -0.90912245        2.81333669       -3.36402198
 C            0.71746184       -0.89420065       -3.56364262
 C           -0.52737879       -1.51431760       -3.99428584
 C            0.65806286        0.51382371       -3.89727580
 C           -2.65435350       -0.21231412       -4.01871310
 C           -2.69543600        1.19464086       -3.66353700
 C           -1.46896065        1.81284858       -4.13970402
 C           -1.35457781       -0.48831424       -4.60079502
 C           -0.59461326        0.74854182       -4.60436432
