   70
C70 / DATE: 7/ 1/2024 / Origin: Program Fullerene / C70 from database
 C            1.57527421        0.20645354        4.84567690
 C            0.75834300       -0.98589492        4.71276433
 C            1.39103061       -1.85575539        3.74045260
 C            2.61211041        0.14894080        3.82930412
 C            2.50855604       -1.12508683        3.15756494
 C            2.51582891        1.34760012        3.02937417
 C            0.73494817        1.35058431        4.54418065
 C            1.43598026        2.16070684        3.57000123
 C           -0.60697639       -0.56971816        4.47142442
 C           -0.58865563        0.86060144        4.20028866
 C           -1.40290832       -1.38242996        3.68480280
 C            0.59118999       -2.62535014        2.89655109
 C           -0.80044013       -2.51055087        2.98003082
 C            1.16345646       -3.09152895        1.71644432
 C            2.68826427       -1.18688691        1.78023776
 C            2.29288690       -2.36268461        1.15865546
 C            2.64562837        1.25435758        1.64627091
 C            2.74080285       -0.00443055        1.02491838
 C            2.25862564        2.35754681        0.88824032
 C            0.67480080        2.89887679        2.67765088
 C            1.22183704        3.15792000        1.36045041
 C           -1.21322733        1.36195352        3.05382071
 C           -0.72412745        2.53522754        2.48331152
 C           -2.32118983       -0.75728459        2.75781705
 C           -2.06210898        0.53752724        2.30952329
 C           -1.62686722       -2.76762960        1.80454110
 C           -2.69409654       -1.78030918        1.80196102
 C            0.31710182       -3.49350430        0.60621751
 C           -1.02666133       -3.13243421        0.60171016
 C            2.18364220       -2.41327588       -0.28466854
 C            1.10668763       -3.33497992       -0.60033501
 C            2.73998502       -0.07615899       -0.37576092
 C            2.31542399       -1.24086538       -1.02036444
 C            2.50756183        2.35208822       -0.47508256
 C            2.86455524        1.09721860       -1.10765842
 C            1.55663561        3.01120139       -1.35136061
 C            0.09902828        3.43532887        0.48361008
 C           -1.07801028        2.86950237        1.11349763
 C            0.26962484        3.25590474       -0.87995752
 C           -2.46497195        0.90903746        1.01991578
 C           -1.87334734        2.00037746        0.37861410
 C           -3.23152770       -1.38294427        0.59335102
 C           -3.25476111        0.03515480        0.28117191
 C           -1.66462511       -2.84326965       -0.61056439
 C           -2.82557272       -2.07627998       -0.61446186
 C            0.45428611       -3.19289991       -1.80932538
 C           -0.99235746       -3.04802612       -1.81315849
 C            1.77157932       -1.18218953       -2.31038928
 C            0.97424984       -2.23325173       -2.76219974
 C            2.38119196        1.14405203       -2.47790254
 C            1.72663108        2.43313649       -2.66982311
 C            1.82734910        0.00161836       -3.05181997
 C            0.67033907        2.51611909       -3.56312369
 C           -0.81210602        2.81636434       -1.64023283
 C           -1.81844876        2.05179854       -1.02186966
 C           -0.65480124        2.78450810       -3.02324840
 C           -3.28765630        0.15405533       -1.16191778
 C           -3.08426814       -1.17336333       -1.72274834
 C           -2.66845903        1.23088314       -1.78014936
 C           -1.34625498       -2.25587368       -2.98708422
 C           -0.10141298       -1.95766268       -3.68973265
 C           -2.35459414       -1.29002864       -2.90233176
 C            1.03922060        0.13988180       -4.19880604
 C            0.52933044        1.45663121       -4.54004074
 C           -0.01943479       -0.82109180       -4.47347286
 C           -1.61537919        2.06423448       -3.82602322
 C           -2.50157710        1.14069067       -3.15753633
 C           -2.30745567       -0.17896719       -3.74346523
 C           -0.88403765        1.32840974       -4.84340458
 C           -1.23566911       -0.07388589       -4.71432760
