   70
C70 / DATE: 7/ 1/2024 / Origin: Program Fullerene / C70 from database
 C            1.19114037       -0.08377507        4.19800514
 C            2.49102634       -0.34806299        3.62821209
 C            2.47009565       -1.69856022        3.08670055
 C            0.36949977       -1.26761710        3.99761481
 C            1.09808812       -2.16522845        3.13302456
 C           -0.93875405       -0.82333834        3.57376526
 C            0.43578757        1.05158332        3.70947385
 C           -0.94396634        0.63153241        3.60340395
 C            0.95004256        1.86284774        2.70513357
 C            2.98269437        0.52646862        2.58352738
 C            2.20561910        1.59408120        2.12986351
 C            3.14480017       -1.66748288        1.79879237
 C            3.65027202       -0.31794259        1.61071761
 C            2.56404663       -2.32594162        0.71645407
 C            0.51140646       -2.58859733        1.94764219
 C            1.34402241       -2.98644724        0.90848673
 C           -1.57248958       -1.46358648        2.51418591
 C           -0.83850193       -2.31784903        1.67766750
 C           -2.71388744       -0.85155813        2.01878714
 C           -1.77966922        1.30455419        2.71834413
 C           -2.84117519        0.59077154        2.16234016
 C            0.07173611        2.72921057        2.05829005
 C           -1.30654958        2.44648028        2.06147644
 C            0.61029573        3.64974944        1.16729877
 C            2.56025863        2.20359693        0.92070731
 C            1.81478386        3.28216436        0.45633464
 C            3.80817909        0.15908994        0.31967952
 C            3.30210384        1.48082024       -0.01345798
 C            2.96934089       -1.97925166       -0.57748106
 C            3.51371267       -0.71783431       -0.80192127
 C            2.40417110       -2.63600972       -1.66512052
 C            0.78976872       -3.72027288       -0.12652248
 C            1.44130918       -3.68813726       -1.41764716
 C           -1.39367819       -2.76941378        0.46929380
 C           -0.64374102       -3.62458019       -0.34151577
 C           -3.21974352       -1.21829920        0.71331343
 C           -2.55621526       -2.17776339       -0.03948463
 C           -3.52803662        1.09993657        0.98631004
 C           -3.67448520       -0.00467164        0.05244108
 C           -2.17243049        3.11503539        1.19385805
 C           -3.19697346        2.35516947        0.50251599
 C           -0.24148045        4.35179473        0.22927638
 C           -1.65988859        4.08341939        0.24652388
 C            1.49877396        3.34026078       -0.96292987
 C            0.25050064        4.05411028       -1.10716709
 C            2.84761087        1.45255511       -1.39540111
 C            2.96959249        0.09408866       -1.87948632
 C            1.73882176        2.21119950       -1.73870199
 C            1.90975510       -1.83493385       -2.77597615
 C            1.97260012       -0.44510721       -2.68123383
 C            0.41383945       -3.61038173       -2.43947365
 C           -0.87894638       -3.66080849       -1.77660859
 C            0.72400950       -2.48301853       -3.30530011
 C           -2.80783041       -2.20130781       -1.41086148
 C           -1.92794922       -2.92792287       -2.30753169
 C           -3.37079325        0.17490916       -1.29418845
 C           -3.20566408       -0.96622713       -2.07152229
 C           -2.95674361        2.51260533       -0.92213437
 C           -2.04029682        3.63026187       -1.08293989
 C           -0.81985633        3.41579781       -1.83584652
 C           -2.77596814        1.37348488       -1.70445741
 C            0.67848658        1.59881721       -2.42347974
 C            0.85080727        0.32979467       -2.99982405
 C           -0.60658145        2.16097638       -2.39129456
 C           -1.70938212        1.34450654       -2.61173435
 C           -0.31426447       -1.70189531       -3.78618853
 C           -1.68022211       -2.08119689       -3.46446201
 C           -2.45420529       -0.86414330       -3.30448963
 C           -0.21927541       -0.25406748       -3.68182379
 C           -1.55935394        0.26155760       -3.46125349
