   70
C70 / DATE: 7/ 1/2024 / Origin: Program Fullerene / C70 from database
 C            1.25925831       -0.04032690        4.46487875
 C            2.58128283       -0.29228968        3.92446574
 C            2.58667939       -1.64323208        3.39245090
 C            0.44366355       -1.21808794        4.20893902
 C            1.21741036       -2.13015288        3.39836316
 C           -0.83204427       -0.77044303        3.70437633
 C            0.51594736        1.11947281        4.00319960
 C           -0.82515623        0.67673098        3.66926312
 C            1.13643847        2.05769512        3.19175309
 C            3.10198153        0.58952325        2.89544976
 C            2.45862593        1.79144539        2.63420020
 C            3.30336720       -1.62351847        2.13196619
 C            3.54129617       -0.23185302        1.77790753
 C            2.88822683       -2.49179693        1.13905546
 C            0.67691552       -2.61955358        2.20982755
 C            1.55950333       -3.08423283        1.23615622
 C           -1.41208603       -1.42754860        2.63013897
 C           -0.64495082       -2.30876432        1.84936663
 C           -2.51962277       -0.81893402        2.04938787
 C           -1.53189530        1.29042132        2.63910630
 C           -2.59376366        0.58313389        2.07754308
 C            0.35325828        2.73600959        2.17332865
 C           -0.93831330        2.31244254        1.88606408
 C            2.47477411        2.31512937        1.28218900
 C            1.23929729        3.05320169        1.07247713
 C            3.30592758        0.20077667        0.46884637
 C            2.97895677        1.54220128        0.23934991
 C            3.06503904       -2.09661662       -0.24128835
 C            3.17618459       -0.74408713       -0.56032279
 C            1.08580991       -3.30448002       -0.11870053
 C            2.16684077       -2.92812943       -1.01505073
 C           -1.12556914       -2.70120723        0.59036546
 C           -0.22102261       -2.95905191       -0.44039799
 C           -3.21413188       -1.54575749        1.09268284
 C           -2.45840366       -2.46092463        0.26401860
 C           -4.20595583       -0.89736891        0.25966835
 C           -3.42112653        1.26770692        1.19466038
 C           -4.33366455        0.53964654        0.33671929
 C           -1.49944305        2.66930035        0.65753853
 C           -2.83658770        2.34736651        0.42330479
 C            0.72143957        3.12502777       -0.21595290
 C           -0.66133357        3.02171521       -0.41090550
 C            2.71901466        1.97257712       -1.05481100
 C            1.58836292        2.86125200       -1.27594334
 C            2.87108091       -0.33532592       -1.86203251
 C            2.75238469        1.02092914       -2.14633270
 C            1.85556542       -2.52948296       -2.30099114
 C            2.40290586       -1.27431223       -2.78314116
 C           -0.53154454       -2.57907917       -1.75053730
 C            0.46703191       -2.56216751       -2.71852132
 C           -2.79378951       -2.16674108       -1.11839503
 C           -3.91608091       -1.24957860       -1.12098750
 C           -1.75640717       -1.96931230       -2.01917512
 C           -4.19364813        1.07178260       -1.00706010
 C           -3.33987225        2.24609197       -0.93731004
 C           -3.80162980       -0.02169932       -1.88055996
 C           -1.16743452        3.05325830       -1.70998333
 C           -2.47467601        2.49125131       -1.98992520
 C            1.06351140        2.59679242       -2.60396340
 C            1.80941280        1.47815690       -3.15984061
 C           -0.30257600        2.69739919       -2.82267798
 C            1.55409918       -0.84416510       -3.88133976
 C            0.33959202       -1.64583172       -3.83351802
 C            1.16530156        0.55020150       -3.96814541
 C           -1.82255334       -0.90976379       -2.93571520
 C           -2.70271200        0.15438722       -2.71466329
 C           -2.28410155        1.45535424       -2.99231832
 C           -0.98880181        1.68258477       -3.61079954
 C           -0.79346195       -0.74115088       -3.85944455
 C           -0.28202759        0.59600236       -4.10825724
