   70
C70 / DATE: 7/ 1/2024 / Origin: Program Fullerene / C70 from database
 C            1.27373778       -0.16030990        4.29154292
 C            2.56502462       -0.53444000        3.75994026
 C            2.41445344       -1.82426981        3.09541571
 C            0.42352470       -1.33107948        4.19373864
 C            1.03118240       -2.22067707        3.23097808
 C           -0.91565386       -0.86411408        3.90760494
 C            0.56174771        0.93900040        3.66393230
 C           -0.83457382        0.56481149        3.63222616
 C            1.12188934        1.56449295        2.55600823
 C            3.19015665        0.35015426        2.80188538
 C            2.50621264        1.48394507        2.36124176
 C            2.97198775       -1.68855135        1.76386196
 C            3.80758557       -0.50698740        1.80767466
 C            2.14760110       -1.88427042        0.65766712
 C            0.29333526       -2.52775569        2.09665425
 C            0.87926311       -2.44255385        0.82414755
 C           -1.72291572       -1.62639228        3.06947632
 C           -1.09796006       -2.53634072        2.20315417
 C           -2.90489715       -1.01761371        2.66482805
 C           -1.66425106        1.07483952        2.64118771
 C           -2.88494341        0.42506063        2.49280232
 C            0.28889913        1.99976921        1.51447808
 C           -1.08610083        1.71144276        1.52822307
 C            0.84493507        2.66573062        0.41811984
 C            3.08027033        2.19341712        1.31653003
 C            2.22009090        2.89830000        0.38464327
 C            4.18203036        0.07540491        0.61178171
 C            4.10624112        1.52190244        0.53405760
 C            2.46977619       -1.26188157       -0.55061829
 C            3.59253757       -0.43648517       -0.61698397
 C            1.53226655       -1.22846873       -1.58727832
 C            0.09254741       -2.69080745       -0.29941424
 C            0.37087756       -2.01424251       -1.49957256
 C           -1.81813362       -3.11712048        1.16743463
 C           -1.14294698       -3.30552403       -0.10393179
 C           -3.68476395       -1.58832744        1.58455814
 C           -3.17419700       -2.67383491        0.88881274
 C           -3.73527572        0.75445092        1.37709627
 C           -4.28836978       -0.48520863        0.85327480
 C           -1.84562633        1.94832613        0.36949929
 C           -3.15657725        1.48451719        0.27580571
 C            0.09331635        2.83324536       -0.74725366
 C           -1.19801347        2.30750551       -0.81141083
 C            0.73053248        3.25661998       -1.91184868
 C            2.91289889        2.92952438       -0.89536908
 C            3.90317614        1.87037672       -0.85420464
 C            3.62038953        0.64453167       -1.58438030
 C            2.15455388        3.03212985       -2.04598492
 C            1.72722613       -0.35783320       -2.66991788
 C            2.64269118        0.69675678       -2.56709310
 C            2.27391511        1.96404909       -3.02032051
 C            0.81506952       -0.35586903       -3.71896125
 C           -0.56202330       -2.01765702       -2.55213781
 C           -0.41955842       -1.09593375       -3.58204969
 C           -2.14248820       -3.24387493       -1.14213658
 C           -3.37977322       -2.76250629       -0.54675627
 C           -1.86458459       -2.43660775       -2.30290694
 C           -4.17940629       -0.44065348       -0.59488222
 C           -3.57578032        0.83263266       -0.95182719
 C           -3.80196795       -1.58255352       -1.28530514
 C           -2.92488616       -1.45148224       -2.43179761
 C           -1.75165357        1.91015300       -2.03838330
 C           -1.51937419       -0.16717328       -3.81028617
 C           -2.72992046        0.91517676       -2.05020107
 C           -2.56927163       -0.19145273       -2.89794247
 C            0.15641665        2.91307906       -3.19817373
 C            1.14101530        2.10406121       -3.90810234
 C            0.47785229        0.90215675       -4.36156679
 C           -1.09641631        2.19303935       -3.22838024
 C           -0.94492311        1.11025012       -4.17290409
