   70
C70 / DATE: 7/ 1/2024 / Origin: Program Fullerene / C70 from database
 C            1.11611323        0.20042383        4.99594938
 C            2.47121284        0.04162427        4.52133246
 C            2.61159717       -1.34375441        4.11551777
 C            0.37376733       -0.99251351        4.59413438
 C            1.27340609       -1.82769559        3.83118302
 C           -0.85684359       -0.55323415        3.97393780
 C            0.37057668        1.34688635        4.52568421
 C           -0.95824425        0.86772950        4.21705690
 C            0.84335631        2.05827086        3.34486837
 C            2.90902808        0.84531645        3.39192618
 C            1.96978233        1.59418193        2.67425949
 C            3.58621697       -1.36241275        3.04720004
 C            3.85528395        0.02237604        2.67812332
 C            3.24786401       -2.05791855        1.82320489
 C            0.94449848       -2.16742447        2.51897215
 C            1.96767958       -2.57639136        1.65595356
 C           -1.19887796       -1.01512265        2.70383904
 C           -0.32892163       -1.85774833        2.00304321
 C           -2.15152547       -0.29545913        1.98224145
 C           -1.44688666        1.67779653        3.13236642
 C           -0.33227099        2.42876586        2.58701106
 C           -2.27125220        1.08287727        2.20370574
 C           -0.26125659        2.53334231        1.19920514
 C            1.99982488        1.61269067        1.26751117
 C            0.90518294        2.13075057        0.53846861
 C            3.86469858        0.08748565        1.23699760
 C            3.81082068       -1.27641574        0.74095627
 C            3.09197970        1.04217658        0.59135109
 C            3.31962932       -1.48161690       -0.54423672
 C            1.63652415       -3.01622422        0.38608492
 C            2.42738581       -2.53538497       -0.73979048
 C           -0.65692606       -2.23695590        0.69488445
 C            0.24691240       -3.00301232       -0.02204809
 C           -2.59182317       -0.79893670        0.75322445
 C           -1.73056783       -1.62908600        0.02634445
 C           -3.56247917       -0.06124574        0.07826321
 C           -2.55797520        1.85269032        1.10099014
 C           -1.47073117        2.49747164        0.49652375
 C           -3.57029777        1.37196435        0.30097027
 C           -1.44795883        2.62423863       -0.89260318
 C            0.90424666        2.08671960       -0.86411606
 C           -0.29181206        2.23539919       -1.57827168
 C            3.05968010        0.94402950       -0.78906116
 C            3.24516053       -0.37294245       -1.38432081
 C            2.02467973        1.62219305       -1.53242247
 C            2.44233225       -0.42473512       -2.59259359
 C            1.85212415        0.89558867       -2.77337761
 C            1.56411884       -2.55043068       -1.90671580
 C            0.23326125       -2.94577503       -1.46436066
 C            1.67840630       -1.55647907       -2.87595436
 C           -1.83429427       -1.71360691       -1.38086362
 C           -0.85687355       -2.40098366       -2.12092663
 C           -3.77808123       -0.27441728       -1.33657118
 C           -2.87227237       -1.04569858       -2.05669437
 C           -3.79913486        2.02405250       -0.96152187
 C           -2.66920238        2.69660734       -1.56106742
 C           -4.22861145        0.99820582       -1.88554435
 C           -2.73186104        2.42585981       -2.98050293
 C           -3.75467551        1.40337707       -3.19033730
 C           -0.35882338        1.81151807       -2.91976008
 C            0.64470543        0.98840401       -3.44359427
 C           -1.53176416        1.98477325       -3.65441670
 C            0.62892658       -1.42231635       -3.77910549
 C           -0.63794481       -2.04896307       -3.44515158
 C            0.29017911       -0.09273285       -4.24428931
 C           -2.82844008       -0.89436160       -3.44709237
 C           -3.17654104        0.38707192       -4.03864628
 C           -1.94550407        0.93884983       -4.57132354
 C           -1.66895456       -1.35140171       -4.17430232
 C           -1.05153308       -0.17831151       -4.78170206
