   70
C70 / DATE: 7/ 1/2024 / Origin: Program Fullerene / C70 from database
 C            1.13865381       -0.05537629        4.68324771
 C            2.37655036       -0.39390670        4.02263250
 C            2.21220343       -1.71231012        3.42164299
 C            0.27157231       -1.21806253        4.59674980
 C            0.82351516       -2.08676089        3.57146501
 C           -1.08284664       -0.73191522        4.43262830
 C            0.38184052        1.07879255        4.19400823
 C           -1.01932552        0.71183396        4.26834675
 C            0.81824120        1.77670153        3.06993655
 C            2.87164128        0.48307188        2.98049997
 C            2.09380072        1.55067024        2.52746644
 C            2.77422589       -1.64599423        2.08866880
 C            3.48762970       -0.38489442        2.00149745
 C            2.01145615       -2.05579858        0.99706200
 C            0.06552758       -2.36017548        2.43355248
 C            0.69697042       -2.49716352        1.18397203
 C           -1.86738308       -1.25047395        3.33250631
 C           -1.32598133       -2.22341385        2.50013968
 C           -1.88784478        1.06991323        3.15738579
 C           -2.55843806       -0.13417497        2.70975769
 C           -0.12766880        2.46860472        2.31836065
 C           -1.41877468        1.94648796        2.19554024
 C            0.32220291        3.37981778        1.37684182
 C            2.43374814        2.14605671        1.30486703
 C            1.63012252        3.16156037        0.79018000
 C            3.74154967        0.12896292        0.74463097
 C            3.30811678        1.48491700        0.43965761
 C            2.42935227       -1.67763400       -0.27836445
 C            3.39796950       -0.68043599       -0.40738771
 C            1.67269607       -2.03775113       -1.39284442
 C           -0.05302866       -2.89233650        0.07347116
 C            0.45235361       -2.69634034       -1.21745030
 C           -2.07807519       -2.55862018        1.38834256
 C           -1.41200403       -3.13162232        0.24171410
 C           -2.91627586       -0.26456955        1.36637726
 C           -3.00527632       -1.56045109        0.87643668
 C           -2.04355478        1.95226352        0.95207230
 C           -2.64053890        0.78077798        0.47002038
 C           -0.58054461        3.79109716        0.31834800
 C           -1.77369092        2.99817080        0.08687423
 C            1.49041045        3.29421979       -0.65375915
 C            0.17654120        3.82967660       -0.92069521
 C            3.07434233        1.54816921       -0.99821543
 C            3.33825768        0.22465525       -1.53747588
 C            2.00119946        2.29665508       -1.47751207
 C            1.98719783       -1.47067507       -2.62935055
 C            2.65883958       -0.18572134       -2.66628614
 C            1.00052877       -1.45340815       -3.69032296
 C           -0.35993083       -2.96158268       -2.32611255
 C           -0.10005443       -2.29057539       -3.59050932
 C           -2.31211535       -2.93746772       -0.87551472
 C           -3.13059846       -1.77894460       -0.54470453
 C           -1.80272308       -3.03534884       -2.15664631
 C           -2.78347215        0.57999219       -0.91924107
 C           -3.13919720       -0.69157098       -1.40897722
 C           -1.87949095        2.77961864       -1.33607873
 C           -0.62367617        3.19797770       -1.94134599
 C           -2.47538513        1.62069157       -1.81568794
 C            1.26435910        1.83591637       -2.58297749
 C            1.74517636        0.74138287       -3.30523277
 C            0.83417507       -0.06099090       -4.10216751
 C           -0.02095142        2.33962399       -2.85361761
 C           -2.21580228        1.32176078       -3.14810145
 C           -0.42763741        0.43931453       -4.38057511
 C           -0.88989612        1.61478235       -3.66761869
 C           -1.37298421       -1.86495704       -4.14362495
 C           -2.40569062       -2.20610623       -3.18308314
 C           -3.05658831       -0.97314217       -2.77190611
 C           -1.55336660       -0.47121276       -4.50141650
 C           -2.64215491        0.05774848       -3.69209749
