   70
C70 / DATE: 7/ 1/2024 / Origin: Program Fullerene / C70 from database
 C            1.58313073        0.01992910        4.63602372
 C            0.76948444       -1.17044023        4.46722781
 C            1.43494861       -2.03594666        3.51094668
 C            2.67225682       -0.04844722        3.67802463
 C            2.64867136       -1.36099069        3.06829312
 C            2.58192841        1.10322331        2.80480016
 C            0.76387480        1.16457491        4.28661826
 C            1.44126699        1.89595459        3.23195460
 C           -0.58904302       -0.74951426        4.19130209
 C           -0.58506729        0.69607991        4.02692672
 C           -1.35021153       -1.51571628        3.32568516
 C            0.67428345       -2.73398571        2.57150303
 C           -0.71432892       -2.57945175        2.55456458
 C            1.31743500       -3.20867542        1.43075381
 C            3.01490714       -1.48101749        1.73334808
 C            2.59782433       -2.62760973        1.06818072
 C            2.78852447        0.91288447        1.44155735
 C            3.27016748       -0.32065035        0.98984126
 C            2.18268167        1.78919265        0.53498246
 C            0.66286683        2.49653577        2.25325486
 C            1.22649689        2.69646631        0.99536300
 C           -1.27602048        1.27061589        2.96204925
 C           -0.72631768        2.39947387        2.35592698
 C           -2.30162754       -0.85327619        2.45339273
 C           -2.23052614        0.52384618        2.26238385
 C           -1.44181414       -2.70239633        1.29821928
 C           -2.49832626       -1.70559479        1.29948668
 C            0.56511043       -3.40673057        0.20054890
 C           -0.74688413       -2.95715076        0.11837724
 C            2.73904194       -2.71335557       -0.37129415
 C            1.46817417       -3.17954086       -0.91270525
 C            3.63145768       -0.43943068       -0.34925373
 C            3.43049973       -1.70922523       -1.03008688
 C            2.33651383        1.57646674       -0.83664175
 C            3.24253756        0.61587828       -1.26813363
 C            1.38571545        2.07908317       -1.72924391
 C            0.53316385        3.48113483        0.08136388
 C            0.58606256        3.13737493       -1.32905493
 C           -1.50660929        3.10819365        1.45412166
 C           -0.83448133        3.84387848        0.39878361
 C           -2.81960577        1.07169771        1.11855652
 C           -2.64445710        2.43156498        0.86068764
 C           -2.85349157       -1.11696412        0.09941790
 C           -3.24682294        0.22209267        0.09129668
 C           -1.22766443       -2.43808602       -1.08899806
 C           -2.42256045       -1.70897697       -1.08309597
 C            0.97069410       -2.62125667       -2.08495241
 C           -0.40606037       -2.44035788       -2.22721361
 C            3.08960874       -1.42452966       -2.40970475
 C            3.06480353        0.02005784       -2.57662551
 C            1.83893588       -1.93707636       -2.93668907
 C            1.01146334        1.33377930       -2.84998874
 C            1.87138262        0.35009988       -3.33448404
 C            1.30921660       -0.90315969       -3.80628442
 C           -0.31845306        1.35118769       -3.28845172
 C           -0.75487680        3.25251251       -1.87532997
 C           -1.62651164        3.72149313       -0.81047884
 C           -2.81167012        2.94681915       -0.49051455
 C           -1.22629015        2.26743565       -2.73893788
 C           -3.73426772        0.77026954       -1.09260295
 C           -3.32430444        2.11044153       -1.46750519
 C           -2.59383328        1.97651940       -2.71617475
 C           -3.00344547       -1.30492046       -2.27702053
 C           -3.70428150       -0.03453419       -2.30539359
 C           -3.09632275        0.77527893       -3.35115738
 C           -0.87429545       -1.89638168       -3.42158419
 C           -0.03699336       -0.93657018       -4.11872187
 C           -0.77288256        0.31190121       -4.10385198
 C           -2.23392773       -1.39824345       -3.49746222
 C           -2.17085502       -0.06373410       -4.07612647
