   70
C70 / DATE: 7/ 1/2024 / Origin: Program Fullerene / C70 from database
 C            1.56708787       -0.12912770        5.54212431
 C            0.68421011       -1.26688194        5.73215662
 C            1.26415609       -2.39275930        5.02518971
 C            2.59199513       -0.50951286        4.58355978
 C            2.41726922       -1.90983813        4.28027763
 C            2.54437095        0.43907876        3.48506957
 C            0.78754683        0.93307999        4.93571894
 C            1.53264529        1.43313450        3.79235786
 C           -0.58757177       -0.95410207        5.09800179
 C           -0.55312887        0.43401455        4.68842376
 C            0.28689720       -2.85199794        4.05440987
 C           -0.85068935       -1.95419451        4.08114400
 C            2.22851004       -2.28595998        2.89341141
 C            0.97607913       -3.00877570        2.79293955
 C            2.62654301       -0.00934944        2.16777646
 C            2.51786512       -1.37767131        1.87440382
 C            2.29140648        0.89955299        1.16480187
 C            0.80278814        1.94895957        2.72602388
 C            1.38339439        1.92103667        1.45506843
 C           -1.13068787        0.77882023        3.47450278
 C           -0.58554217        1.86615460        2.80399245
 C           -1.36961782       -1.53573027        2.85737383
 C           -1.76382988       -0.20635185        2.70557954
 C            0.25293007       -2.81578874        1.62729906
 C           -1.01993027       -2.24616013        1.71174477
 C            2.09696686       -1.72840172        0.58977696
 C            0.98189336       -2.55760917        0.47296615
 C            2.44389583        0.50721971       -0.15542370
 C            2.36429529       -0.85145873       -0.45373780
 C            2.14809362        1.42347003       -1.15350904
 C            0.69909244        2.54270243        0.40308080
 C            1.11839112        2.33913103       -0.91668680
 C           -1.32241749        2.38620692        1.76018087
 C           -0.60860479        2.94920722        0.63196742
 C           -2.33169068        0.18559836        1.48678529
 C           -2.36723737        1.54608231        1.20753470
 C           -1.64302002       -1.91605256        0.51361448
 C           -2.36044986       -0.71865415        0.41649336
 C            0.28293542       -2.55802916       -0.72759611
 C           -1.10522018       -2.45267462       -0.64792985
 C            1.99979351       -1.22988442       -1.74560825
 C            0.93496084       -2.12403010       -1.88299990
 C            2.44873794        1.04954110       -2.45454031
 C            2.31536698       -0.35564659       -2.78395724
 C            1.91772012        1.82505924       -3.55292253
 C            0.30411268        2.76981160       -1.98013459
 C            0.79609952        2.69822977       -3.28587377
 C           -1.54418804        2.95698383       -0.46818174
 C           -2.58470515        1.98860001       -0.15121996
 C           -1.06521524        2.98431248       -1.76696324
 C           -2.80408855       -0.29890142       -0.85287723
 C           -2.94497899        1.06970350       -1.12821443
 C           -1.84447752       -2.33794743       -1.81091996
 C           -2.76107868       -1.21777293       -1.90782559
 C            0.27425528       -2.25242584       -3.10279477
 C           -1.15830137       -2.47272644       -3.08000206
 C            1.62464066       -0.44816616       -4.05791537
 C            1.52194434        0.89601476       -4.60002153
 C            0.56189374       -1.33111623       -4.18821440
 C           -0.12536326        2.55042545       -4.40087270
 C            0.25218881        1.35042188       -5.13209861
 C           -1.97498290        2.61019848       -2.74979956
 C           -2.89446884        1.52700393       -2.44557495
 C           -1.54160779        2.46843913       -4.12131452
 C           -2.75106528       -0.76097508       -3.28906848
 C           -1.77400939       -1.55426564       -4.01858231
 C           -0.71045750       -0.88202597       -4.74636134
 C           -0.88536439        0.44670686       -5.11964471
 C           -2.85226313        0.59373571       -3.55439652
 C           -2.02671903        1.18432867       -4.60196785
