   70
C70 / DATE: 7/ 1/2024 / Origin: Program Fullerene / C70 from database
 C            0.96537200       -0.02046936        4.71258802
 C            2.22593633       -0.30314317        4.06198078
 C            2.22104672       -1.70701021        3.70281816
 C            0.14280476       -1.22117472        4.63544134
 C            0.85056854       -2.17258284        3.80696803
 C           -1.18928473       -0.82140201        4.24221833
 C            0.16555825        1.07989507        4.21891458
 C           -1.20840339        0.62924665        4.19048662
 C            0.61153485        1.84664850        3.14639359
 C            2.57483673        0.44278703        2.86934961
 C            1.78048489        1.49999867        2.45096141
 C            2.88363082       -1.83715926        2.41871845
 C            3.03926898       -0.49881120        1.86581942
 C            2.43970137       -2.83619527        1.57380932
 C            0.24920378       -2.69901169        2.66362363
 C            1.08811944       -3.35069860        1.76536573
 C           -1.71674273       -1.30405010        2.98041695
 C           -0.96006215       -2.16372427        2.18824039
 C           -2.01677500        1.01659951        3.05077543
 C           -2.39780761       -0.19196023        2.34248836
 C           -0.32894511        2.62909912        2.48141845
 C           -1.61377839        2.10150139        2.28569147
 C            0.15989678        3.53791640        1.55054285
 C            1.92049597        1.92742854        1.13377671
 C            1.32414891        3.12945508        0.78531599
 C            2.72438274       -0.26631925        0.52037146
 C            2.20205593        0.97826263        0.14375477
 C            2.59858985       -2.64560303        0.15017901
 C            2.64010356       -1.34909191       -0.36206187
 C            0.58488748       -3.72088939        0.45727341
 C            1.70699079       -3.60583743       -0.46126357
 C           -1.27683974       -2.26413016        0.83010376
 C           -0.65940736       -3.24786580        0.05555846
 C           -2.45472118       -0.14789797        0.95170497
 C           -2.03822787       -1.25693158        0.21694156
 C           -2.20772663        2.25027152        1.03674984
 C           -2.53833899        1.09308372        0.31371425
 C           -0.77319799        4.15522557        0.63066958
 C           -2.01520363        3.45795332        0.38103577
 C            1.06044128        3.41536596       -0.60969360
 C           -0.09441022        4.29375439       -0.64349524
 C            1.74591168        1.17075890       -1.16755501
 C            1.16468242        2.38974978       -1.54593585
 C            2.22951674       -1.14126516       -1.68017106
 C            1.88091266        0.14279866       -2.10332436
 C            1.43174226       -3.46521725       -1.80679010
 C            1.87708762       -2.24679378       -2.46191199
 C           -0.99924741       -3.37692419       -1.28719613
 C            0.06306226       -3.68327495       -2.23112870
 C           -2.19984363       -1.24614329       -1.16693756
 C           -1.85189911       -2.37543036       -1.90119386
 C           -2.65652422        1.12996550       -1.08177626
 C           -2.47961037       -0.04360229       -1.82317365
 C           -2.28548120        3.55415213       -1.03383814
 C           -1.08628066        4.08462279       -1.67340249
 C           -2.65624744        2.35259151       -1.75178365
 C            0.44137570        2.48183644       -2.74217299
 C           -0.76609794        3.18225898       -2.75766427
 C           -1.98356497        2.44335541       -3.03176886
 C            1.41864102        0.33320691       -3.40343656
 C            0.60651724        1.49729358       -3.70746115
 C            1.03158906       -2.06760693       -3.62838542
 C           -0.15213996       -2.89015151       -3.42447920
 C           -1.44215610       -2.23645646       -3.29039829
 C            0.86132913       -0.79199060       -4.13872041
 C           -2.31589348        0.04308618       -3.20882957
 C           -1.87393329        1.29710735       -3.79550749
 C           -0.58295704        1.02956156       -4.40245018
 C           -1.62024887       -1.01549426       -3.91908789
 C           -0.47043010       -0.40452827       -4.56918509
