   70
C70 / DATE: 7/ 1/2024 / Origin: Program Fullerene / C70 from database
 C            0.96578882       -0.11643382        4.94119415
 C            2.27406404       -0.32336260        4.35188836
 C            2.22947067       -1.58731592        3.63175578
 C            0.15528313       -1.27807960        4.60880283
 C            0.84807047       -2.00290874        3.56097530
 C           -1.18609494       -0.81240074        4.35022823
 C            0.20247448        1.06575589        4.57986526
 C           -1.16941581        0.64437321        4.37993784
 C            0.75045217        2.00840975        3.71669433
 C            2.81346125        0.67756564        3.44686072
 C            2.10755710        1.84625421        3.20802977
 C            2.94039097       -1.40652586        2.39055466
 C            3.40250179       -0.02832728        2.32546275
 C            2.43099301       -1.96925511        1.22905567
 C            0.25362247       -2.14091071        2.30363215
 C            1.06207158       -2.27684778        1.16165505
 C           -1.82501384       -1.20181343        3.11014918
 C           -1.12594859       -1.93983879        2.15710227
 C           -1.89177416        1.10669143        3.20571881
 C           -2.56879553       -0.05096687        2.65285838
 C           -0.06345475        2.57216789        2.64617493
 C           -1.29300488        2.00669662        2.32347760
 C            2.15272402        2.43543009        1.88333750
 C            0.83321402        2.97107223        1.58109928
 C            3.47636459        0.57401883        1.06812647
 C            2.88165009        1.82973658        0.86014888
 C            3.09451057       -1.62165082        0.06549792
 C            3.66328250       -0.28566838       -0.01459362
 C            2.50348343       -1.93038880       -1.21345845
 C            0.45335651       -2.50659791       -0.08162833
 C            1.18758261       -2.36769739       -1.26845495
 C           -1.68363121       -2.01976850        0.88336960
 C           -0.93816451       -2.59457921       -0.13790185
 C           -2.91942252       -0.01090318        1.31678346
 C           -2.74146274       -1.16233806        0.55564614
 C           -1.73968078        2.03122505        0.99885362
 C           -2.81424258        1.20634036        0.66396908
 C            0.39173462        2.94571927        0.26419855
 C           -0.90441771        2.50939421       -0.02333836
 C            2.64140759        2.28121762       -0.43783499
 C            1.35735815        2.89991932       -0.73425057
 C            3.49034432        0.18758027       -1.37384617
 C            2.95006177       -0.91755567       -2.15146077
 C            3.01730702        1.47209626       -1.58261456
 C            2.16030701       -0.65710488       -3.25986097
 C            0.52790749       -2.33697285       -2.49829647
 C            1.02434729       -1.52629075       -3.52159542
 C           -1.56604912       -2.83665001       -1.35285925
 C           -0.78174340       -2.79123833       -2.57071403
 C           -3.24162545       -1.15975334       -0.74705413
 C           -2.82555253       -2.16569154       -1.61939850
 C           -3.35165662        1.28400369       -0.60925550
 C           -3.75914820        0.04216265       -1.24298227
 C           -1.30633572        2.36878798       -1.35636187
 C           -2.63250458        2.04151867       -1.61160442
 C            0.97871966        2.53071929       -2.08542315
 C            2.05054494        1.72146184       -2.64054368
 C            1.73020660        0.70804998       -3.53256166
 C           -0.34305422        2.19419681       -2.35751552
 C            0.10198599       -0.76099886       -4.34129418
 C            0.37671562        0.63721212       -4.05623840
 C           -0.62670458        1.42236862       -3.49212441
 C           -1.64574544       -2.31439245       -3.64092810
 C           -2.93925515       -1.99646303       -3.05938441
 C           -1.21814752       -1.17677558       -4.43767726
 C           -3.80188497        0.30535882       -2.66989248
 C           -2.99955735        1.49734821       -2.90553635
 C           -1.94608117        1.14080418       -3.82962949
 C           -3.36538181       -0.71954894       -3.59348644
 C           -2.26636601       -0.17164186       -4.37150352
