   70
C70 / DATE: 7/ 1/2024 / Origin: Program Fullerene / C70 from database
 C            1.38400699       -0.01447351        4.92637969
 C            0.60334587       -1.18598587        4.56926530
 C            1.48149665       -2.09736117        3.87835780
 C            2.63216008       -0.07730123        4.18403206
 C            2.72865997       -1.39291316        3.60211152
 C            2.67684307        1.06772048        3.29964811
 C            0.65725891        1.15676297        4.46791850
 C            1.53163037        1.91362245        3.60146422
 C           -0.58949803       -0.73319506        3.88311167
 C           -0.60550614        0.71907053        3.91942659
 C           -1.00700445       -1.36238327        2.71080050
 C            1.03003412       -2.67174778        2.62625450
 C           -0.24258086       -2.38257508        2.12644111
 C            2.97723516       -1.50451637        2.17701816
 C            2.14699437       -2.59457489        1.71054347
 C            3.05259199        0.91666240        1.96307118
 C            3.07827296       -0.36148549        1.37766454
 C            2.87273908        2.02842412        1.15024439
 C            0.96710323        2.62832626        2.55134433
 C            1.81919539        2.96584475        1.50472998
 C           -1.10315114        1.38756153        2.80812603
 C           -0.40297716        2.48252808        2.28783110
 C           -1.92271732       -0.68891336        1.91470214
 C           -1.99253233        0.70679200        1.98100223
 C           -2.46349375       -1.34574456        0.82218306
 C           -0.49625597       -2.73147180        0.79121211
 C           -1.68748469       -2.31590457        0.17982167
 C            1.85753037       -2.65273041        0.36356619
 C            0.59282105       -3.09410443       -0.00594905
 C            2.87882491       -0.51525580       -0.00434131
 C            2.51857816       -1.77605317       -0.48956463
 C            2.85409522        1.87602474       -0.28838139
 C            2.76999239        0.60419941       -0.83847026
 C            1.27849409        3.52016335        0.27842527
 C            2.02547582        2.94133680       -0.82703988
 C           -0.96012081        3.16665536        1.20869998
 C           -0.09321686        3.69681143        0.16819991
 C           -2.67397763        1.41560594        0.99134618
 C           -2.14962967        2.63164355        0.56256346
 C           -3.50720719       -0.72231847        0.15735745
 C           -3.52839187        0.72698584        0.13519108
 C           -3.90276520       -1.19165814       -1.15045357
 C           -1.93768192       -2.65907603       -1.15913651
 C           -3.05958945       -2.15711459       -1.81724005
 C            0.39381560       -3.41131293       -1.33984471
 C           -0.91070842       -3.19755820       -1.93220005
 C            2.35643838       -1.96521924       -1.85587229
 C            1.39364600       -2.96324396       -2.29387074
 C            2.31971657        0.46234859       -2.15590307
 C            2.20690555       -0.80470796       -2.71147048
 C            1.40322677        2.74783377       -2.05068015
 C            1.65249830        1.51555238       -2.77717401
 C           -0.74735476        3.49185161       -1.11502989
 C           -2.04343356        2.88851290       -0.86674824
 C           -0.00615313        3.07686282       -2.20908515
 C           -3.57834163        1.12266746       -1.26133629
 C           -4.02254245       -0.02865678       -2.01882527
 C           -2.57318045        1.95346286       -1.75476277
 C           -2.92168496       -1.71861490       -3.19505255
 C           -3.35610979       -0.33415658       -3.26142770
 C           -0.70911608       -2.71528569       -3.29392360
 C            0.70284448       -2.44548437       -3.45941205
 C            1.12858813       -1.07317267       -3.65582791
 C           -1.61390051       -1.80549024       -3.81532003
 C            0.47723601        1.23362561       -3.58493131
 C           -0.58484512        2.12001861       -3.13413686
 C           -1.85318698        1.59225681       -2.90811750
 C           -2.21145884        0.46523875       -3.64720099
 C            0.17346639       -0.08705164       -3.90623374
 C           -1.16596328       -0.44416075       -4.09509149
