   70
C70 / DATE: 7/ 1/2024 / Origin: Program Fullerene / C70 from database
 C            1.29361570        0.15853592        4.72943635
 C            2.55004715       -0.00402530        4.03200025
 C            2.52749038       -1.30771825        3.38658392
 C            0.46690143       -0.99869248        4.41800975
 C            1.17092854       -1.80044829        3.43533842
 C           -0.85899805       -0.51908021        4.08694481
 C            0.50919762        1.34740525        4.46949828
 C           -0.85655306        0.92687556        4.21485453
 C            0.89962135        2.23388895        3.38730629
 C            2.93898791        0.97003037        3.02385928
 C            2.10414511        2.04313523        2.70622789
 C            3.14793194       -1.16129385        2.09269669
 C            3.57266187        0.22270026        1.95060570
 C            2.57954487       -1.78270603        0.99022313
 C            0.51958926       -2.11795701        2.24467217
 C            1.23406159       -2.18309041        1.04058048
 C           -1.51137877       -1.05594816        2.98753553
 C           -0.87022042       -2.01924377        2.20138290
 C           -2.47952378       -0.26972706        2.38078964
 C           -1.37369616        1.71070128        3.10011678
 C           -0.29985434        2.56301131        2.62780002
 C           -2.17697427        1.07127020        2.16389456
 C           -0.17949549        2.82025526        1.26641420
 C            2.25750510        2.65637824        1.46833403
 C            1.07700229        3.16106697        0.78447863
 C            3.62271336        0.76646373        0.66914958
 C            3.12205164        2.04992859        0.46523977
 C            3.13932066       -1.45774401       -0.23392935
 C            3.68138246       -0.11742474       -0.40592184
 C            2.45858110       -1.82233735       -1.45378320
 C            0.53067627       -2.44139779       -0.14477601
 C            1.15031367       -2.27998300       -1.39338095
 C           -1.55209477       -2.50493744        1.08588425
 C           -0.82467428       -2.77883301       -0.08000333
 C           -3.33396248       -0.90204078        1.49966268
 C           -2.90916119       -2.18999909        0.99586103
 C           -3.81637774       -0.15823991        0.35467343
 C           -2.21141617        1.55666138        0.85537664
 C           -1.14084443        2.32781423        0.37620913
 C           -3.12043504        0.98238962       -0.03906243
 C           -0.96602919        2.50955321       -1.00175906
 C            1.33401575        3.10965433       -0.63825097
 C            2.60675648        2.43423152       -0.84080575
 C            0.29207712        2.84229646       -1.51483873
 C            3.33220942        0.32905396       -1.74532366
 C            2.81822700       -0.83581265       -2.45540034
 C            2.74220449        1.57993761       -1.93054640
 C            1.97715087       -0.65424059       -3.54032428
 C            0.38803515       -2.27504027       -2.56476560
 C            0.74680168       -1.42626921       -3.61269323
 C           -1.48606331       -3.13689912       -1.25413786
 C           -0.92184017       -2.73148199       -2.52467945
 C           -3.63784847       -2.42116308       -0.23307517
 C           -4.20864402       -1.14351131       -0.63952514
 C           -2.92400899       -2.96939336       -1.35988893
 C           -1.94011092       -1.96847162       -3.23201569
 C           -3.86019340       -0.92063719       -2.02855655
 C           -3.18617318       -2.11277741       -2.50532773
 C           -3.07685823        1.32421575       -1.38727624
 C           -1.98436395        2.14328019       -1.87526357
 C           -3.36964200        0.32128337       -2.40642480
 C           -0.27811740       -0.58540979       -4.21093589
 C           -1.58891272       -0.73319073       -3.76913001
 C           -1.65121653        1.68102578       -3.21275811
 C           -2.32475507        0.40516075       -3.41640170
 C            0.63263412        2.46008415       -2.81000750
 C            1.90347359        1.78450473       -3.02442543
 C            1.67289812        0.69930187       -3.95919052
 C           -0.35864007        1.85003954       -3.67971566
 C            0.27832299        0.74503069       -4.36733967
