   70
C70 / DATE: 7/ 1/2024 / Origin: Program Fullerene / C70 from database
 C            1.29243857       -0.05234709        4.46649858
 C            2.61227819       -0.28645857        3.91367977
 C            2.62480733       -1.62707971        3.35749981
 C            0.47224496       -1.21582006        4.16755022
 C            1.26417696       -2.13679997        3.38213795
 C           -0.77702644       -0.74654503        3.61712434
 C            0.55752321        1.12905728        4.04918467
 C           -0.75898198        0.70344430        3.60816717
 C            1.21181416        2.12278066        3.33834775
 C            3.11765416        0.61859304        2.89648124
 C            2.50672877        1.84927463        2.71809579
 C            3.31140268       -1.57214458        2.08132299
 C            3.45399297       -0.16936814        1.72182346
 C            2.91275901       -2.45828293        1.09826280
 C            0.73355527       -2.66755463        2.20727853
 C            1.62593040       -3.12690006        1.24363411
 C           -1.31864874       -1.38765406        2.51516109
 C           -0.57877830       -2.35925735        1.82441046
 C           -2.35254983       -0.74056496        1.85081032
 C           -1.38858432        1.35696802        2.54810120
 C           -2.36254745        0.65883148        1.83059784
 C            0.45030988        2.92739850        2.40043919
 C           -0.81868133        2.51239647        1.99262321
 C            2.46195277        2.41250850        1.38362259
 C            1.39144566        3.38810554        1.39833602
 C            3.05187788        0.26470201        0.45202265
 C            2.60220096        1.57524597        0.27450169
 C            2.98556128       -2.02840020       -0.27948536
 C            2.89570375       -0.66748682       -0.57522838
 C            1.14711400       -3.42923087       -0.09485507
 C            2.16715442       -2.96375462       -1.02040589
 C           -1.08055227       -2.85031613        0.61221565
 C           -0.19415466       -3.22631626       -0.40692601
 C           -3.06867712       -1.46553345        0.90814546
 C           -2.42152265       -2.61911006        0.31323519
 C           -3.81450919       -0.77643935       -0.13053845
 C           -3.10091809        1.33884114        0.87130223
 C           -3.74558847        0.60507359       -0.20351227
 C           -1.35423142        3.05767506        0.81916445
 C           -2.55300533        2.55858024        0.31069042
 C            0.89332888        3.81928431        0.18676548
 C           -0.54654376        3.85713475        0.00876759
 C            2.03246765        1.96385892       -0.94214202
 C            1.43263438        3.22283166       -1.02022360
 C            2.35084686       -0.27723885       -1.80176128
 C            1.81027947        1.01032364       -1.94881638
 C            1.78601993       -2.61283643       -2.29851086
 C            2.08533230       -1.26639919       -2.75117054
 C           -0.55970111       -3.10116090       -1.75523845
 C            0.42762142       -2.89722375       -2.71782408
 C           -2.87469603       -2.72065549       -1.05725313
 C           -3.68106522       -1.54608316       -1.35302696
 C           -1.88394948       -2.84950947       -2.10204789
 C           -3.11598299       -0.90416050       -2.52813707
 C           -2.17826562       -1.84265296       -3.11312863
 C           -3.35164448        1.23068887       -1.45640073
 C           -2.77922834        2.52243958       -1.13010312
 C           -2.79749630        0.45274707       -2.47529909
 C           -0.77525404        3.88425649       -1.42453763
 C            0.47232891        3.49251214       -2.06499098
 C           -1.84111773        3.07411734       -1.98368272
 C            0.98368788        1.31695817       -3.04964908
 C           -1.75295512        0.95855974       -3.26301349
 C            0.17431981        2.44164769       -3.00225062
 C           -1.26662714        2.24698765       -3.03024904
 C            1.17917584       -0.98626585       -3.84062808
 C            0.14760934       -2.01315414       -3.83437026
 C           -1.14646148       -1.35603713       -3.89836300
 C            0.52500900        0.29576515       -3.86813037
 C           -0.91134250        0.07715316       -3.94610138
