   70
C70 / DATE: 7/ 1/2024 / Origin: Program Fullerene / C70 from database
 C            1.42997469       -0.21689551        4.16440591
 C            2.46122063       -0.40193282        3.16061771
 C            2.29387796       -1.72878623        2.58593627
 C            0.56866387       -1.38749051        4.14105017
 C            1.13918692       -2.34912691        3.21489298
 C           -0.79417102       -0.93413612        3.92441369
 C            0.58739526        0.95990512        4.09515807
 C           -0.79732649        0.51187095        4.05835593
 C            0.98953090        2.02398985        3.29822557
 C            2.81202189        0.65370645        2.32147140
 C            2.15163676        1.88090486        2.43064634
 C            3.48288491        0.35226928        1.14050649
 C            2.53648784       -1.90403462        1.22342361
 C            3.38764893       -0.99807953        0.60518541
 C            1.65070145       -2.66035603        0.44623610
 C            0.28022984       -3.10685543        2.43789881
 C            0.66143334       -3.41762303        1.07445332
 C           -1.55825970       -1.54114545        2.92812268
 C           -1.13549776       -2.76929211        2.41667518
 C           -2.54998767       -0.80779431        2.26538788
 C           -1.74160763        1.24794723        3.36001021
 C           -2.70557895        0.55027964        2.52643287
 C           -0.00464962        2.81077226        2.58609700
 C           -1.34427893        2.46031535        2.66036205
 C            1.91396982        2.68327075        1.23730386
 C            0.55734667        3.19323963        1.30140751
 C            3.40085883        1.26878444        0.01729942
 C            2.41952276        2.25477641        0.01663022
 C            3.41538435       -0.90535598       -0.84018022
 C            3.64112900        0.49216719       -1.18442759
 C            1.63786864       -2.53146808       -0.95066220
 C            2.52663489       -1.66438179       -1.59364866
 C            0.61329908       -3.12531934       -1.68965112
 C           -0.56052492       -3.73987496        0.35946186
 C           -1.67732990       -3.26496945        1.16371971
 C           -0.58601953       -3.58804710       -1.01730992
 C           -3.19764169       -1.34499332        1.15651465
 C           -2.72254572       -2.58191781        0.56154586
 C           -3.62138456       -0.46278998        0.07845976
 C           -3.08561787        1.44515533        1.44473766
 C           -2.17185367        2.57663976        1.47419122
 C           -3.47075468        0.91795401        0.21160576
 C           -0.23249271        3.15076744        0.15715397
 C           -1.62412923        3.02062465        0.27647049
 C            1.70533515        2.51504057       -1.15643133
 C            0.39116481        2.99434369       -1.08584923
 C            3.16622804        0.97110455       -2.39430798
 C            2.22016488        2.07479897       -2.37855974
 C            2.30789799       -1.31206998       -2.92603854
 C            2.70358611        0.01078622       -3.37815163
 C            0.18531310       -2.51349920       -2.93281981
 C            1.03374860       -1.61805720       -3.55376555
 C           -1.72148924       -2.93845162       -1.65752913
 C           -2.75078529       -2.42549348       -0.88447762
 C           -3.26750384       -1.10185741       -1.18068883
 C           -1.20980817       -2.15001782       -2.76532880
 C           -2.70171319       -0.33200717       -2.19322203
 C           -1.59221246       -0.81504703       -2.90644351
 C           -3.27438723        1.68845292       -0.93554179
 C           -2.39784242        2.84729317       -0.86344549
 C           -3.00319695        1.02388759       -2.20039805
 C           -0.35712493        3.11867763       -2.25238608
 C           -1.79839147        3.03420256       -2.16663975
 C           -2.22288692        1.92860883       -3.01347041
 C            1.33856976        1.91759385       -3.52541330
 C            1.57392813        0.59642282       -4.07956478
 C            0.48843098       -0.36994723       -4.05799671
 C           -0.77695725        0.05266732       -3.65064997
 C            0.03063705        2.36130171       -3.42532880
 C           -1.04796219        1.41859160       -3.68213900
