   70
C70 / DATE: 7/ 1/2024 / Origin: Program Fullerene / C70 from database
 C            1.23783383       -0.11632680        4.67996067
 C            2.56019679       -0.25283901        4.10132374
 C            2.62933270       -1.56431219        3.48673892
 C            0.44198636       -1.25829922        4.24647928
 C            1.27904765       -2.09600548        3.41881016
 C           -0.78871258       -0.74886632        3.68802606
 C            0.47036225        1.08320416        4.39975150
 C           -0.87287538        0.65474630        4.04780422
 C            1.06187531        2.12692374        3.69311729
 C            3.00341378        0.71696765        3.11409371
 C            2.31002558        1.90841468        2.96763572
 C            3.36544880       -1.43130666        2.24482319
 C            3.40874697       -0.01303777        1.92254331
 C            3.05206282       -2.31067601        1.22593587
 C            0.81172552       -2.53639783        2.18257165
 C            1.76609178       -2.99289885        1.28168461
 C           -1.17764317       -1.13993783        2.40945803
 C           -0.41658064       -2.07170706        1.68652749
 C           -2.15878267       -0.39270979        1.75506483
 C           -1.67224952        1.48326491        3.27542789
 C           -2.46181806        0.89001440        2.21112278
 C            0.22956231        2.99639509        2.87603458
 C           -1.13242348        2.73463627        2.76342043
 C            2.13913117        2.45584398        1.63613241
 C            0.99643289        3.34726302        1.68939486
 C            2.98703204        0.41600604        0.65714670
 C            2.32118733        1.63650320        0.52057687
 C            3.18140912       -1.84558599       -0.13533078
 C            2.99136803       -0.49037353       -0.40566569
 C            1.38032017       -3.28029674       -0.08566364
 C            2.46663245       -2.81853494       -0.93163353
 C           -0.81761429       -2.41188390        0.38770800
 C            0.07526430       -3.03722069       -0.49444060
 C           -2.56108647       -0.75747359        0.47339915
 C           -2.02207767       -1.90849985       -0.10153782
 C           -3.19075341        0.19754887       -0.33154125
 C           -2.73252392        1.93162656        1.23890726
 C           -1.81966946        3.02966732        1.51536996
 C           -2.97083065        1.55120320       -0.07600106
 C            0.33684741        3.64412755        0.50816742
 C           -1.11677584        3.59836241        0.46325376
 C            1.66318685        1.94484486       -0.67410231
 C            0.82552495        3.05494363       -0.72612375
 C            2.43753624       -0.12719231       -1.63635477
 C            1.63056421        1.01555738       -1.71621962
 C            2.16991970       -2.48211463       -2.23638073
 C            2.37156787       -1.10070442       -2.63265836
 C           -0.18990836       -3.03113262       -1.86730800
 C            0.87071459       -2.85557220       -2.75877014
 C           -2.46819185       -2.32524815       -1.35029942
 C           -1.49333646       -2.81489287       -2.30472082
 C           -3.69878161       -0.17130500       -1.56890625
 C           -3.42055626       -1.50194202       -2.07032345
 C           -3.53101583        0.75837969       -2.66529416
 C           -2.55495233        2.38464073       -1.12075794
 C           -1.49538598        3.25702847       -0.89546655
 C           -0.27652460        3.06291430       -1.66340798
 C           -2.72395547        1.94009626       -2.42836073
 C            0.74213411        1.20346223       -2.79288082
 C           -0.29712780        2.13272789       -2.69261408
 C           -1.53643224        1.83582825       -3.26285199
 C            1.54788073       -0.88005055       -3.80131980
 C            0.67811524       -2.04057594       -3.94252801
 C            0.71214465        0.29574446       -3.84722688
 C           -1.72897023       -2.13108354       -3.57088720
 C           -2.96082331       -1.37660920       -3.44469149
 C           -2.95042892        0.03388251       -3.78294961
 C           -1.68649742        0.67015146       -4.11928267
 C           -0.65512186       -1.56430298       -4.24731856
 C           -0.57219875       -0.11500499       -4.38659192
