   70
C70 / DATE: 7/ 1/2024 / Origin: Program Fullerene / C70 from database
 C            1.46686889       -0.21053967        5.21724121
 C            0.62127715       -1.38941142        5.17583092
 C            1.22437182       -2.33701146        4.25462251
 C            2.57936480       -0.42735095        4.30876519
 C            2.47033920       -1.77180099        3.77183533
 C            2.62211410        0.69149329        3.38073857
 C            0.69564392        0.90434326        4.69839682
 C            1.48618044        1.55136005        3.66635222
 C           -0.66246015       -0.99719889        4.61851054
 C           -0.62296780        0.41989591        4.33162408
 C            0.21270139       -2.71434536        3.28334816
 C           -0.96272052       -1.89413451        3.52531067
 C            0.59016794       -2.93839658        1.96108914
 C            2.81079490       -1.97624922        2.44253558
 C            1.92295217       -2.75565482        1.59110197
 C            2.94827366        0.45324901        2.04834023
 C            3.25830842       -0.84550229        1.64537335
 C            2.52771404        1.36605994        1.08189280
 C            0.81324652        2.11423968        2.58945074
 C            1.50104412        2.26590107        1.38821794
 C           -1.15521792        0.86584663        3.12666541
 C           -0.57299554        1.98439350        2.53947909
 C           -1.63321873       -1.39461201        2.41726991
 C           -1.86732813       -0.02191785        2.30665265
 C           -0.38515333       -2.83652732        0.97244042
 C           -1.55821994       -2.12996419        1.24947494
 C           -0.00471723       -2.99069265       -0.35842053
 C            2.23217818       -2.39664263        0.21150041
 C            3.07611957       -1.21536887        0.25049452
 C            1.22575929       -2.46997321       -0.74934517
 C            2.82082941        1.10699247       -0.25327098
 C            2.85010608       -0.21959852       -0.68527483
 C            2.57061079        2.10800932       -1.18040055
 C            0.88759083        2.98264001        0.35806229
 C            1.51515712        3.05894915       -0.88161523
 C           -1.24945597        2.58448522        1.49280051
 C           -0.48026761        3.22499369        0.43927894
 C           -2.41979508        0.47088898        1.11329454
 C           -2.31476369        1.83354674        0.85584116
 C           -2.36964314       -1.76153392        0.19026430
 C           -2.69134128       -0.40512069        0.05005318
 C           -1.01339587       -3.09237595       -1.30383455
 C           -2.31424512       -2.57254341       -0.93215664
 C           -0.75508253       -2.61297484       -2.64488667
 C            1.28397700       -1.62033328       -1.86384597
 C            2.19980378       -0.56391694       -1.86908114
 C            0.26935006       -1.68486553       -2.82990684
 C            2.46109165        1.74474200       -2.58014756
 C            2.18399784        0.35918660       -2.90317741
 C            0.71500427        3.23013388       -2.08748596
 C            1.41363086        2.55778782       -3.16806744
 C           -1.29172779        3.19097694       -0.76556447
 C           -2.42870777        2.31837704       -0.50326104
 C           -0.67638709        3.14790065       -2.01466764
 C           -3.05233590        0.10588009       -1.21162547
 C           -2.85461015        1.46326290       -1.50642055
 C           -2.98324286       -2.15407338       -2.13979572
 C           -2.05796899       -2.38740741       -3.23796581
 C           -3.41559049       -0.77889516       -2.23098720
 C           -2.21464033       -1.29601546       -4.16698182
 C           -3.22417668       -0.40090699       -3.61832458
 C            0.15157990       -0.68329650       -3.80889840
 C            1.09737043        0.33834192       -3.86128741
 C            0.65247804        1.71393641       -4.06277488
 C           -1.05777900       -0.48539979       -4.48267395
 C           -1.39910412        2.62873597       -3.09266078
 C           -2.60677341        1.86767779       -2.81629398
 C           -2.80778330        0.95053230       -3.91628736
 C           -0.70476687        1.95821017       -4.18727634
 C           -1.54941430        0.86958225       -4.63948539
