   70
C70 / DATE: 7/ 1/2024 / Origin: Program Fullerene / C70 from database
 C            1.54146764       -0.16099069        5.16055014
 C            0.66990313       -1.31785307        5.19665571
 C            1.19033097       -2.28777623        4.24991214
 C            2.56594663       -0.40759589        4.15815210
 C            2.27806174       -1.67096682        3.51996553
 C            2.63757580        0.76517512        3.32073264
 C            0.75312519        0.96613720        4.69589038
 C            1.54215631        1.64847894        3.69893158
 C           -0.63551596       -0.90374897        4.70917509
 C           -0.54593776        0.47747123        4.28894984
 C            0.06706064       -2.77477930        3.47889716
 C           -1.05471877       -1.87752227        3.72904285
 C            0.28541977       -3.15800901        2.15962640
 C            2.23296218       -1.72786824        2.13012294
 C            1.46552577       -2.73159920        1.53411425
 C            2.89355228        0.61403264        1.95960039
 C            2.65283476       -0.63054433        1.35594141
 C            2.72982694        1.76026515        1.19371209
 C            0.88576240        2.29944043        2.66468185
 C            1.69786747        2.69084949        1.61530735
 C           -1.00147787        0.82070439        3.01753018
 C           -0.43488571        1.92549469        2.36550557
 C           -1.78846654       -1.45161866        2.62704859
 C           -1.77074309       -0.09077467        2.27943667
 C           -0.85559530       -3.31162592        1.38090818
 C           -1.95095827       -2.38996746        1.61787476
 C           -0.73090634       -3.50131297       -0.05066222
 C            1.64435915       -2.97111822        0.17736425
 C            0.52920997       -3.45861883       -0.61817884
 C            2.59899178       -0.73051331       -0.04367992
 C            2.34156693       -1.97087400       -0.61092361
 C            2.66017463        1.66067086       -0.24988721
 C            2.48544227        0.41799089       -0.83630883
 C            1.08663544        3.23642427        0.43318102
 C            1.84952772        2.76967967       -0.70992964
 C           -1.01815771        2.36980267        1.17135830
 C           -0.29473323        3.23904120        0.33938487
 C           -2.27115586        0.31679530        1.03923559
 C           -2.09646576        1.64415429        0.64895474
 C           -2.46450933       -1.97573319        0.33323026
 C           -1.81717328       -2.77533420       -0.68944611
 C           -2.66445549       -0.62961169        0.08422686
 C           -1.61967058       -2.20219209       -1.94264182
 C            0.67248171       -2.91855753       -1.95441365
 C            1.83203334       -2.04453909       -1.96492096
 C           -0.45272220       -2.50492329       -2.65926126
 C            1.91284010        0.35002537       -2.11571504
 C            1.76203750       -0.89649132       -2.74333929
 C            1.18713157        2.65879274       -1.92253281
 C            1.39207887        1.52105952       -2.70398535
 C           -0.82200218        3.60600515       -0.89143110
 C           -0.00095598        3.37424570       -2.07084583
 C           -2.73556998        2.08784805       -0.50479288
 C           -2.17340721        3.21378262       -1.21559795
 C           -2.83810874       -0.23277778       -1.23943526
 C           -2.35143926       -1.05209850       -2.26587878
 C           -3.13651608        1.10060042       -1.49098801
 C           -2.33756882       -0.59118634       -3.57884978
 C           -0.20685650       -1.82196872       -3.84469895
 C            0.98997912       -0.99310507       -3.89775990
 C           -1.28534904       -1.07044817       -4.44971306
 C            0.78473728        1.47277112       -3.95685308
 C            0.67082330        0.20396805       -4.63800482
 C           -0.69429496        0.07291415       -5.12082962
 C           -0.88635571        3.08278452       -3.18422550
 C           -2.22781173        2.92824820       -2.63988752
 C           -2.91882902        1.66148904       -2.81475368
 C           -2.52238538        0.82523480       -3.84889055
 C           -0.46003338        2.19891868       -4.16590129
 C           -1.42369731        1.25334846       -4.70003757
