   70
C70 / DATE: 7/ 1/2024 / Origin: Program Fullerene / C70 from database
 C            1.10954465       -0.09492397        4.56126571
 C            2.30195781       -0.39999898        3.80602749
 C            2.14799025       -1.73933404        3.25934983
 C            0.25254393       -1.27000554        4.52346538
 C            0.78943877       -2.16933192        3.51770423
 C           -1.11147771       -0.81045265        4.38174211
 C            0.30674532        1.04257241        4.15864845
 C           -1.08314493        0.63639123        4.24025770
 C            0.69356934        1.82638116        3.07384545
 C            2.67417663        0.47466193        2.71116876
 C            1.92024189        1.61038709        2.42634779
 C            2.60685033       -1.70432787        1.88676412
 C            3.08295445       -0.36392968        1.60397021
 C            1.86442444       -2.34178274        0.90791499
 C           -0.00657546       -2.55645421        2.43794247
 C            0.60777636       -2.87503303        1.21813740
 C           -1.90250778       -1.33537907        3.28985403
 C           -1.39141202       -2.34662995        2.48258576
 C           -1.97112925        0.99718916        3.14533018
 C           -2.57699687       -0.22156326        2.64374472
 C           -0.29743227        2.54134297        2.40563610
 C           -1.54813200        1.94518519        2.22767889
 C            0.10016541        3.52981760        1.51915990
 C            2.14649244        2.24508275        1.20185707
 C            1.40993286        3.39213319        0.91328373
 C            2.92731971        0.13954443        0.31644058
 C            2.72866314        1.51050432        0.15978490
 C            2.14715148       -2.02662615       -0.41306560
 C            2.55660502       -0.72583570       -0.72121384
 C            1.60663332       -2.83459891       -1.39934131
 C           -0.14745827       -3.45148371        0.19322114
 C            0.44899188       -3.64052377       -1.05411519
 C           -2.14778576       -2.67201029        1.36669399
 C           -1.53569226       -3.40394234        0.27728689
 C           -2.87282907       -0.33797741        1.28510783
 C           -2.97431397       -1.62720711        0.77752312
 C           -2.11782122        1.93049051        0.95664934
 C           -2.55360179        0.71692251        0.41733732
 C           -0.82821746        3.93478058        0.48127723
 C           -1.88848669        3.01283865        0.12041039
 C            1.32766953        3.88674333       -0.45009153
 C           -0.06100363        4.23208673       -0.71263126
 C            2.78464462        2.03739856       -1.12502303
 C            2.06297753        3.25845032       -1.44339540
 C            2.33771337       -0.20632479       -2.00215647
 C            2.64974360        1.12691391       -2.25005120
 C            1.39665726       -2.29036457       -2.72673851
 C            1.55899598       -0.91988085       -2.92299843
 C           -0.38462324       -3.74407236       -2.24069444
 C            0.25256553       -2.97799838       -3.29984262
 C           -2.32240053       -3.10232829       -0.90796514
 C           -2.99367727       -1.83615811       -0.65240658
 C           -1.77448308       -3.33224536       -2.16001990
 C           -2.46149298        0.49420069       -0.96871984
 C           -2.77372587       -0.76046782       -1.50358241
 C           -1.82469021        2.79917209       -1.31228214
 C           -0.74223747        3.61912860       -1.83928871
 C           -2.02421531        1.51924640       -1.82126800
 C            1.46650186        3.08771291       -2.75759025
 C            1.92957060        1.81911906       -3.29381155
 C            0.01790521        3.13189420       -2.89212863
 C            0.71210790       -0.23541515       -3.81343801
 C           -1.51029052        1.20864747       -3.08386006
 C            0.79629456        1.14880378       -3.88974155
 C           -0.39759254        1.90780946       -3.55012632
 C           -0.76838519       -2.19047625       -3.95052311
 C           -2.00702199       -2.35282350       -3.20626185
 C           -2.48041188       -1.02621985       -2.83605249
 C           -0.53846158       -0.77109101       -4.10097353
 C           -1.70378895       -0.06833464       -3.59401628
