   70
C70 / DATE: 7/ 1/2024 / Origin: Program Fullerene / C70 from database
 C            1.00913157       -0.01168776        4.72091847
 C            2.30072907       -0.35979952        4.17265369
 C            2.24307051       -1.75249492        3.76129417
 C            0.17150750       -1.20117067        4.65480181
 C            0.84947821       -2.15545029        3.80320675
 C           -1.15740246       -0.77523082        4.29176430
 C            0.26365250        1.07167130        4.10794910
 C           -1.12538555        0.67171928        4.14492077
 C            0.75143170        1.68626068        2.95222084
 C            2.79787187        0.39906783        3.04583743
 C            2.08855060        1.49956487        2.57105804
 C            2.95771969       -1.87707582        2.50306689
 C            3.34249026       -0.54010928        2.07838199
 C            2.45875400       -2.75148747        1.55597251
 C            0.25094109       -2.60771870        2.62432783
 C            1.07740243       -3.20204698        1.67639491
 C           -1.75397261       -1.30987074        3.08410658
 C           -1.01560312       -2.13928614        2.23636547
 C           -1.95867268        1.00263039        3.01157686
 C           -2.52060014       -0.22832964        2.49639838
 C           -0.15310613        2.28941148        2.06284794
 C           -1.50810374        1.92579939        2.08478585
 C            0.33040239        3.05442480        0.99282351
 C            2.52798158        2.04119657        1.37163881
 C            1.66045734        2.92249546        0.61837548
 C            3.30478422       -0.18936065        0.72630288
 C            3.20205677        1.16372082        0.42587053
 C            2.67775886       -2.45288014        0.15762286
 C            2.92203874       -1.13585537       -0.23394913
 C            0.58402663       -3.43837368        0.33474478
 C            1.70230881       -3.23791102       -0.57029341
 C           -1.43638313       -2.25428595        0.90323404
 C           -0.66726214       -2.95993813       -0.03039560
 C           -2.80154670       -0.29157797        1.13882206
 C           -2.51259693       -1.47293086        0.46800648
 C           -2.24273985        2.04283374        0.91503413
 C           -2.86575586        0.89559401        0.40128630
 C           -0.56647188        3.56473706        0.05427947
 C           -1.94031507        3.10660834        0.08585762
 C           -0.16770316        3.62896150       -1.34510809
 C            1.98992032        2.76127634       -0.78937773
 C            2.83037771        1.57961947       -0.90899101
 C            1.00787179        2.99795115       -1.74620262
 C            2.54989714       -0.73186532       -1.52555595
 C            2.52068560        0.62566199       -1.86623557
 C            1.43228050       -2.89337647       -1.88004130
 C            2.02751689       -1.67937003       -2.40931071
 C           -0.97776713       -2.87758575       -1.38971499
 C            0.05323700       -2.91220251       -2.33129683
 C           -2.98784316       -1.61455488       -0.82634203
 C           -2.22943646       -2.41067507       -1.76949730
 C           -3.23904537        0.82493668       -0.94800849
 C           -3.45654390       -0.42715278       -1.52165860
 C           -2.45917144        3.12944697       -1.26229477
 C           -1.37044097        3.50467326       -2.15051164
 C           -3.06624706        1.92622205       -1.78620865
 C           -1.37883122        2.58822551       -3.27415792
 C           -2.54594399        1.73174535       -3.13177361
 C            1.03932373        2.26639655       -2.93569759
 C            1.83593843        1.05000566       -3.00279845
 C           -0.17711622        2.04595120       -3.70801061
 C            1.20076931       -1.25430918       -3.52641622
 C           -0.01127556       -2.06142646       -3.50958660
 C            1.12968218        0.09394542       -3.83664774
 C           -0.14178554        0.68598957       -4.22368981
 C           -2.40370623       -1.82329070       -3.08829597
 C           -3.19316902       -0.61305452       -2.93809814
 C           -2.53382548        0.45181090       -3.67167451
 C           -1.22762270       -1.49903086       -3.87368756
 C           -1.29865439       -0.08778857       -4.22322039
