   70
C70 / DATE: 7/ 1/2024 / Origin: Program Fullerene / C70 from database
 C            1.22664721       -0.08593768        4.31579787
 C            2.53827400       -0.43370105        3.81885792
 C            2.49407960       -1.81676537        3.36943209
 C            0.40202549       -1.28193299        4.24708962
 C            1.11466309       -2.26454884        3.46311324
 C           -0.90936070       -0.87636664        3.79986165
 C            0.49583843        0.98465207        3.65926195
 C           -0.88972712        0.56636020        3.60872640
 C            1.04852272        1.62163340        2.54959932
 C            3.09173560        0.35464697        2.74058584
 C            2.41952078        1.48708391        2.28576791
 C            3.17256706       -1.89323826        2.08452341
 C            3.63420416       -0.55796489        1.74967698
 C            2.62416875       -2.68257325        1.08901226
 C            0.50235458       -2.79972416        2.33351921
 C            1.31152269       -3.27168042        1.29940167
 C           -1.58293067       -1.65008625        2.86172191
 C           -0.86760077       -2.59588561        2.10791036
 C           -2.74849778       -1.09520120        2.34122385
 C           -1.72560275        1.10367649        2.63899181
 C           -2.84405270        0.35359071        2.28300042
 C            0.18889979        2.13108370        1.56582962
 C           -1.19934894        2.01409698        1.71884633
 C            0.71553068        2.78579097        0.44772451
 C            2.94504405        2.09004704        1.15129426
 C            2.09095079        2.92077437        0.33054765
 C            3.65755976       -0.12495443        0.42573229
 C            3.71672427        1.25339593        0.24534239
 C            2.67880878       -2.22417776       -0.28826766
 C            3.07145777       -0.91808462       -0.57601302
 C            0.74155749       -3.52511074       -0.00935687
 C            1.52687915       -2.77815641       -0.97859235
 C           -1.46137979       -3.18636450        0.99050177
 C           -0.63390844       -3.56182312       -0.14412092
 C           -3.34884941       -1.63223098        1.13517768
 C           -2.70948826       -2.66094572        0.46190223
 C           -3.61227739        0.70889002        1.10451450
 C           -3.92478977       -0.52122798        0.39133877
 C           -2.04376464        2.55543017        0.75152299
 C           -3.26648937        1.85160458        0.39749150
 C           -0.10235548        3.06398781       -0.65204055
 C           -1.47879589        3.10516832       -0.46784322
 C            0.42627470        3.06503334       -1.95158771
 C            2.67821476        2.94082104       -0.99162124
 C            3.58057960        1.80240787       -1.08296981
 C            1.79406007        2.87918220       -2.13550549
 C            2.62994008       -0.33397714       -1.77245539
 C            3.07403067        0.93839037       -2.12274619
 C            2.24240401        1.77145662       -2.96740204
 C            0.88553785       -1.99991228       -1.93539182
 C            1.56099030       -0.90669910       -2.47397147
 C           -1.23721742       -2.98842894       -1.33234818
 C           -2.59751118       -2.61983752       -0.98906407
 C           -0.48913476       -2.14731857       -2.15464950
 C           -3.91213945       -0.53773038       -0.99829697
 C           -3.21293285       -1.60192753       -1.70387414
 C           -3.39152669        1.87071881       -1.05047161
 C           -2.36380161        2.75917117       -1.56781112
 C           -3.70249666        0.70004258       -1.73495980
 C           -0.40595400        2.78664048       -3.03446471
 C           -1.81911847        2.52756589       -2.82242779
 C            1.31788302        1.15877939       -3.79622283
 C            1.00221630       -0.24269021       -3.56299664
 C            0.06510398        1.85040191       -4.03902609
 C           -1.15264440       -1.27827245       -3.02457619
 C           -2.50609635       -0.99868402       -2.82140912
 C           -2.98782192        0.36790982       -2.95623124
 C           -2.16446299        1.31340240       -3.55159427
 C           -0.40841668       -0.43845756       -3.84803225
 C           -0.96627673        0.84878104       -4.22649990
