   70
C70 / DATE: 7/ 1/2024 / Origin: Program Fullerene / C70 from database
 C            1.35498700        0.01186512        4.38433907
 C            2.58466898       -0.30021941        3.69658968
 C            2.44836161       -1.62855363        3.11547317
 C            0.50584530       -1.16446652        4.31954618
 C            1.10030271       -2.08446218        3.36461063
 C           -0.85735972       -0.71907712        4.09082755
 C            0.57217247        1.14030842        3.92466537
 C           -0.81829507        0.71454749        3.84718727
 C            1.07022446        1.99406081        2.93973334
 C            3.03087375        0.58589449        2.64228553
 C            2.31913548        1.74746169        2.34141995
 C            2.90983303       -1.55740288        1.74763265
 C            3.49605338       -0.24865746        1.54718972
 C            2.12574826       -2.07734176        0.73097744
 C            0.31975483       -2.53775169        2.30389663
 C            0.84424480       -2.58142555        1.00396226
 C           -1.67267115       -1.50527370        3.29587031
 C           -1.05875208       -2.53834014        2.47437988
 C           -2.68665732       -0.86393815        2.48304642
 C           -1.64078224        1.28239735        2.87283054
 C           -2.61216202        0.50208006        2.23122102
 C            0.16259931        2.85876980        2.33134318
 C           -1.24708843        2.49811970        2.31520570
 C            0.47505713        3.48065904        1.05769908
 C            2.67232232        2.41178907        1.16824939
 C            1.72697183        3.29350852        0.50515955
 C            3.49958623        0.28623573        0.26297554
 C            3.37941423        1.66830389        0.13517185
 C            2.45535398       -1.72981087       -0.57345263
 C            3.13644684       -0.52941763       -0.81484290
 C            1.83968838       -2.41397256       -1.61114594
 C            0.02931359       -2.99267026       -0.06239245
 C            0.58334791       -3.08723275       -1.33959265
 C           -1.91850460       -2.75359615        1.33088791
 C           -2.99157302       -1.77231936        1.39085636
 C           -1.36098784       -3.05598189        0.09641216
 C           -3.50357742       -1.27132592        0.19797872
 C           -3.30142827        1.00846416        1.13188738
 C           -3.76794700        0.09742118        0.09313089
 C           -1.80085459        2.93612396        1.04603866
 C           -0.69477740        3.35790388        0.20586202
 C           -2.83597193        2.21947514        0.47772113
 C           -0.55775343        2.83277489       -1.07927612
 C            1.84140873        3.07053417       -0.92660394
 C            3.01752538        2.24286211       -1.14789441
 C            0.69580985        2.85582861       -1.69508159
 C            3.17804112        0.00240647       -2.10390387
 C            3.06665615        1.44206145       -2.27846038
 C            1.75604177       -1.81414889       -2.93063522
 C            2.44004717       -0.63625791       -3.18245556
 C           -0.26071735       -2.93005709       -2.51209855
 C            0.38481337       -1.96995279       -3.39945792
 C           -2.19438354       -2.95115677       -1.01497420
 C           -3.31936986       -2.02939717       -0.95669145
 C           -1.63519734       -2.89895682       -2.35402859
 C           -3.44488356       -1.39981959       -2.25678666
 C           -2.40194514       -1.93446988       -3.11710282
 C           -3.61740654        0.78320222       -1.18572328
 C           -2.81011993        1.96428498       -0.95073716
 C           -1.62601106        2.14040901       -1.66670901
 C           -3.40159083        0.04618485       -2.33778036
 C           -0.32718775       -0.86821836       -3.89038553
 C           -1.70822724       -0.81654565       -3.72717213
 C           -1.45606388        1.47152285       -2.88414556
 C           -2.29893580        0.40958567       -3.21323115
 C            0.84109848        2.33165926       -2.97312596
 C            2.09166905        1.68013670       -3.32550671
 C            1.77520271        0.40368017       -3.94065355
 C           -0.23735712        1.55333968       -3.54770023
 C            0.33591889        0.33635592       -4.10451566
