   70
C70 / DATE: 7/ 1/2024 / Origin: Program Fullerene / C70 from database
 C            1.50852163        0.25240463        4.92675861
 C            0.73122403       -0.95173857        4.69937050
 C            1.44958200       -1.78049387        3.74463310
 C            2.65888021        0.20514807        4.04281481
 C            2.71500555       -1.12051997        3.45802277
 C            2.59058601        1.34914439        3.14840488
 C            0.69259306        1.38280304        4.52406135
 C            1.45099945        2.15600395        3.55923095
 C           -0.62599797       -0.55134354        4.37850691
 C           -0.61478308        0.88205200        4.13011645
 C           -1.35279470       -1.36059841        3.52585632
 C            0.72974556       -2.38568056        2.71033075
 C           -0.65804927       -2.41645508        2.80237460
 C            1.34331686       -2.61091463        1.47217668
 C            3.24701034       -1.24314159        2.18803155
 C            2.67014869       -2.22077627        1.29150809
 C            2.85149984        1.15260715        1.78875526
 C            3.45666998       -0.03792536        1.39606332
 C            2.20587192        1.94639678        0.83352353
 C            0.74642720        2.84132839        2.58764451
 C            1.30489914        2.91967570        1.25464514
 C           -1.20379817        1.39333253        2.96987721
 C           -0.67127773        2.55483931        2.42011007
 C           -2.25550069       -0.73739275        2.57943990
 C           -2.03636862        0.57965370        2.19018036
 C           -1.44542998       -2.70774361        1.62366793
 C           -2.52438919       -1.73119688        1.56317570
 C            0.58101442       -2.98288075        0.35340152
 C           -0.81381960       -3.07351615        0.44187100
 C            1.20338305       -3.07446048       -0.89460407
 C            3.13014473       -1.86018390       -0.03351757
 C            3.42003610       -0.43573997        0.00165210
 C            2.45138530       -2.36919934       -1.12455457
 C            2.22376836        1.59164208       -0.52192133
 C            2.81808204        0.39300736       -0.93644524
 C            1.44272737        2.31845626       -1.42666956
 C            0.20958715        3.28366213        0.38044906
 C           -1.01767595        2.92691929        1.06533439
 C            0.30067650        2.97548994       -0.96534050
 C           -2.40764375        0.96892852        0.89455929
 C           -1.95366480        2.18362466        0.36384152
 C           -2.96361381       -1.31659702        0.31559776
 C           -3.07043833        0.05335555        0.05994618
 C           -1.58760571       -3.05109561       -0.71796189
 C           -2.75727659       -2.18900661       -0.74774599
 C            0.41718214       -2.96120201       -2.11137626
 C           -0.95930701       -2.98782938       -2.02583316
 C            2.25522119       -1.51745837       -2.28458563
 C            2.49042280       -0.14741770       -2.18220161
 C            1.05696137       -1.97718303       -2.96877247
 C            1.53609698        2.01633280       -2.78128693
 C            1.95483647        0.68129684       -3.15901163
 C            0.44534744        2.39812373       -3.66724403
 C           -0.88668993        2.84566333       -1.68271098
 C           -2.03204651        2.39089742       -1.01123747
 C           -0.80810378        2.81417993       -3.07129405
 C           -3.51337939        0.47183074       -1.19578484
 C           -3.04999402        1.74749053       -1.70227726
 C           -2.93555335       -1.72003735       -2.10693981
 C           -1.74054324       -2.08659910       -2.85452900
 C           -3.49475595       -0.46887719       -2.30845728
 C            0.29395454       -1.04665723       -3.67260238
 C            0.92598767        0.14354554       -4.03383004
 C            0.15798450        1.26413075       -4.53211728
 C           -1.10889126       -1.12977192       -3.65116753
 C           -1.87128872        2.20922304       -3.84742500
 C           -3.01590928        1.66717233       -3.14891675
 C           -3.12132301        0.26317347       -3.50501523
 C           -1.27775617        1.13232105       -4.62587232
 C           -1.89211199       -0.10422275       -4.18668443
