   70
C70 / DATE: 7/ 1/2024 / Origin: Program Fullerene / C70 from database
 C            1.33914956       -0.03526925        4.20962538
 C            2.58124784       -0.46213437        3.61063689
 C            2.43162480       -1.85961837        3.21799378
 C            0.51597570       -1.21729105        4.37420259
 C            1.08342858       -2.25847557        3.53515034
 C           -0.86224050       -0.82990542        4.13734635
 C            0.53889015        0.95046685        3.51322858
 C           -0.84683404        0.51926235        3.58801677
 C            0.99906733        1.50806867        2.32212459
 C            3.06791125        0.24640485        2.44587684
 C            2.29695801        1.25307144        1.85787831
 C            2.88261940       -1.96949272        1.84970849
 C            3.64536314       -0.76584986        1.58713336
 C            2.00900854       -2.43095379        0.86694875
 C            0.27528045       -2.82100094        2.55205416
 C            0.70531664       -2.84436293        1.20819348
 C           -1.69678190       -1.76674837        3.55148182
 C           -1.08537833       -2.88004907        2.83902060
 C           -2.79565206       -1.30055694        2.73134629
 C           -1.70063872        0.84016384        2.53409438
 C           -2.77780694       -0.00012907        2.23225696
 C            0.07318369        2.08660136        1.46063675
 C           -1.28910819        1.79425214        1.59938530
 C            0.52779648        2.79180312        0.35268356
 C            2.64983114        1.67293969        0.57066945
 C            1.81332633        2.54645902       -0.13105666
 C            3.88770397       -0.42295917        0.27294931
 C            3.60695685        0.93909265       -0.13309572
 C            2.34165837       -2.18531147       -0.46931668
 C            3.34799285       -1.27127902       -0.77560756
 C            1.48824312       -2.59397219       -1.47972295
 C           -0.17607380       -3.26675370        0.19488626
 C            0.17811632       -3.10011477       -1.13801802
 C           -2.01147568       -3.30873767        1.81913409
 C           -3.13607393       -2.38778279        1.83165476
 C           -1.53481214       -3.40392874        0.46166412
 C           -3.46911742       -2.06809521        0.45595074
 C           -2.48732102       -2.71635196       -0.39820438
 C           -3.56718885        0.28500767        1.12150771
 C           -3.85268574       -0.77308853        0.15893707
 C           -2.20446902        2.27259198        0.66082313
 C           -3.32348727        1.49940863        0.36412539
 C           -0.38222814        3.52181625       -0.40312163
 C           -1.79817686        3.23030118       -0.26430811
 C           -0.11252645        3.78435310       -1.80726133
 C            2.13681511        2.88554287       -1.44743045
 C            1.11848396        3.42526077       -2.33310043
 C            3.56554143        0.92142150       -1.58038710
 C            3.22543859       -0.44402833       -1.96986539
 C            2.96037664        1.97993589       -2.23170392
 C            1.35412034       -1.78091612       -2.68023257
 C            2.18023861       -0.67528770       -2.86741395
 C           -0.78756218       -2.49707353       -2.04594139
 C           -2.00744108       -2.06953663       -1.53873408
 C           -0.06436072       -1.66257350       -2.98052114
 C           -3.53950194       -0.24317687       -1.15124078
 C           -3.62885874        1.19642435       -1.02678396
 C           -2.48990087       -0.79913345       -1.88225024
 C           -2.37160272        3.18752217       -1.59889998
 C           -1.31130203        3.44287343       -2.55427638
 C           -3.05574156        1.97775004       -2.01242660
 C           -0.57699904       -0.42395403       -3.33966788
 C           -1.78612353        0.01199426       -2.78582611
 C           -1.26871200        2.32227263       -3.48079577
 C           -2.21140572        1.32629975       -3.00106645
 C            1.15044001        2.64543692       -3.56107997
 C            2.25089052        1.70444257       -3.46292881
 C            1.72310107        0.36840458       -3.67113726
 C           -0.03697175        1.90655970       -3.95954933
 C            0.29446411        0.49168685       -3.92635334
