   70
C70 / DATE: 7/ 1/2024 / Origin: Program Fullerene / C70 from database
 C            1.60843991        0.06561925        4.94935605
 C            0.80743919       -1.12235970        4.71082479
 C            1.43433875       -1.87308766        3.63329737
 C            2.67116660        0.07977354        3.96233830
 C            2.70262807       -1.22619631        3.33467545
 C            2.49270564        1.24362889        3.10741850
 C            0.76436029        1.21744535        4.70120110
 C            1.32177215        1.95732601        3.57944864
 C           -0.57475315       -0.70381724        4.55803581
 C           -0.60790578        0.75258038        4.60695747
 C           -1.36664137       -1.37687273        3.63731528
 C            0.64116447       -2.35082523        2.58634392
 C           -0.74319293       -2.32493239        2.72536324
 C            1.20620729       -2.55133223        1.31996707
 C            3.17842471       -1.29506362        2.03951635
 C            2.53676238       -2.20834185        1.11638129
 C            2.69624102        1.09211653        1.73566370
 C            3.36125766       -0.05075663        1.30725724
 C            1.88300039        1.78960096        0.83004432
 C            0.45164618        2.49600312        2.64468427
 C            0.87426818        2.62783538        1.32279153
 C           -1.46842689        1.44768541        3.76666455
 C           -0.91576418        2.49123450        2.92130254
 C           -2.38643439       -0.65510305        2.89015294
 C           -2.44345570        0.72598255        2.96126320
 C           -1.57480300       -2.39411039        1.54594207
 C           -2.53025681       -1.30428772        1.59991274
 C            0.38887823       -2.76072782        0.20049134
 C           -1.00192952       -2.67631869        0.32154779
 C            0.95663037       -2.77766606       -1.08708539
 C            2.95226129       -1.78873602       -0.20316776
 C            3.34583965       -0.39100602       -0.09483743
 C            2.19464359       -2.16035999       -1.30366351
 C            1.98124371        1.53085739       -0.55310532
 C            2.82091342        0.50599266       -1.01262904
 C            1.16116154        2.22164281       -1.46189259
 C            0.04321608        3.30044434        0.43849457
 C            0.25335689        3.16394323       -0.98895860
 C           -1.85716556        2.69711766        1.83925998
 C           -2.66322478        1.49123662        1.74298140
 C           -1.39382526        3.26671085        0.66950171
 C           -2.73875860       -0.55244447        0.44164889
 C           -2.77389873        0.84409330        0.50809709
 C           -1.73934651       -2.35105616       -0.80329097
 C           -2.48415607       -1.16484896       -0.78679972
 C            0.12374063       -3.03409054       -2.18228162
 C           -1.30687760       -2.87596560       -2.00581834
 C            0.45545971       -2.48570937       -3.48867366
 C            2.38056489       -1.40240741       -2.45598597
 C            2.65419836        0.01751003       -2.30123732
 C            1.49429884       -1.57245080       -3.58894722
 C            1.03816259        1.78348460       -2.78695984
 C            1.82189713        0.73164946       -3.24073661
 C            1.26212027       -0.25091601       -4.15982969
 C           -0.06418588        2.18279204       -3.54399103
 C           -1.05951557        3.24802826       -1.60543314
 C           -1.99586445        2.85040169       -0.57704632
 C           -2.59496017        1.59152460       -0.66133572
 C           -1.22859272        2.71009961       -2.86328809
 C           -2.65896479       -0.43592080       -1.96453702
 C           -2.65033257        0.96333563       -1.90920873
 C           -2.26082653        1.70697045       -3.02783068
 C           -1.87139036       -2.36749607       -3.23632622
 C           -0.78869442       -2.23898347       -4.19710696
 C           -2.57293274       -1.10172475       -3.18913102
 C            0.07289109        0.03021474       -4.82283550
 C           -0.57385127        1.30770642       -4.58981692
 C           -1.97528843        1.04694785       -4.28557366
 C           -0.97168680       -0.97782373       -4.89172880
 C           -2.19539766       -0.37579660       -4.38505211
