   70
C70 / DATE: 7/ 1/2024 / Origin: Program Fullerene / C70 from database
 C            1.34254997       -0.09302955        4.42191855
 C            2.56346079       -0.34484761        3.69357577
 C            2.53629408       -1.72641470        3.24438527
 C            0.49755683       -1.27078964        4.30925096
 C            1.26015965       -2.30395086        3.63398305
 C           -0.77514086       -0.85405905        3.73804160
 C            0.54562812        1.04847238        4.03369660
 C           -0.81062508        0.59163610        3.78268717
 C            1.07267947        2.00471693        3.17273660
 C            2.86657946        0.49160792        2.54648091
 C            2.11411197        1.64087795        2.29812241
 C            2.91749512       -1.74885195        1.83995638
 C            3.17995324       -0.38332227        1.42974984
 C            2.23547093       -2.58755907        0.96766586
 C            0.60289886       -3.11279824        2.72065547
 C            1.28241181       -3.46117886        1.48869492
 C           -1.25753537       -1.51357247        2.61299620
 C           -0.76456143       -2.78371259        2.34212390
 C           -1.87192058       -0.77485712        1.59454906
 C           -1.55924575        1.28492430        2.84104746
 C           -2.19562395        0.57083541        1.82104371
 C            0.18336890        2.99729986        2.77793186
 C           -1.21227299        2.61809734        2.62080067
 C            0.53482020        3.86553361        1.67657397
 C            2.15748299        2.18088475        1.00741365
 C            1.55085805        3.40828793        0.75814460
 C            2.81258534        0.02200366        0.15368202
 C            2.55481309        1.37213895       -0.06301889
 C            2.17522568       -2.25336757       -0.38717346
 C            2.37009009       -0.92303204       -0.78015770
 C            1.56028553       -3.14559419       -1.26150558
 C            0.25745418       -3.98254810        0.61032153
 C           -0.99706678       -3.37653060        1.04227852
 C            0.52415329       -4.02994445       -0.74561295
 C           -2.14107981       -1.37106509        0.34714399
 C           -1.77614076       -2.70234235        0.10765482
 C           -2.74605187       -0.62611302       -0.67487529
 C           -2.92808183        1.27213354        0.87101501
 C           -3.22034862        0.65318975       -0.40741924
 C           -1.74753051        3.33044494        1.47477754
 C           -0.67259354        4.12574595        0.90802323
 C           -2.61245177        2.66962559        0.61764031
 C            1.08680537        3.72043583       -0.58148885
 C           -0.34313484        3.96451546       -0.49808682
 C            2.40372851        1.81855882       -1.36896958
 C            1.57203001        2.97919032       -1.64347681
 C            2.02024633       -0.50442584       -2.07254159
 C            2.16022847        0.83994965       -2.41473623
 C            1.14335288       -2.69153622       -2.57527112
 C            1.31900713       -1.35846214       -2.92959162
 C           -0.60540502       -3.93409256       -1.64508188
 C           -1.76631821       -3.18483852       -1.19832374
 C           -0.13192028       -3.32070246       -2.86722282
 C           -2.65710665       -1.04930158       -2.00498666
 C           -2.16580303       -2.31873452       -2.28912741
 C           -1.20090842       -2.48666859       -3.37327542
 C           -2.68819470       -0.10543053       -3.03153394
 C           -3.10232400        1.68225706       -1.42874162
 C           -2.43292017        2.81344564       -0.81670200
 C           -1.20578356        3.24640007       -1.32400328
 C           -2.73578395        1.30777015       -2.70822089
 C            0.66397723        2.61141200       -2.71365957
 C            1.23421899        1.43984943       -3.35963755
 C           -0.71524865        2.69024104       -2.50863422
 C           -1.56422149        1.92677161       -3.30709328
 C            0.49298345       -0.82238882       -3.92356537
 C           -0.84414012       -1.37128989       -4.11341169
 C           -1.76791918       -0.25630445       -4.14210010
 C            0.41176861        0.61691234       -4.10985294
 C           -0.99133085        0.96749127       -4.23766328
