   70
C70 / DATE: 7/ 1/2024 / Origin: Program Fullerene / C70 from database
 C            1.25045664       -0.13368455        4.16879868
 C            2.53021455       -0.45597589        3.57901070
 C            2.41505690       -1.76278070        2.94724347
 C            0.41093451       -1.31266335        4.04788358
 C            1.04655113       -2.20646749        3.10430776
 C           -0.93167061       -0.86068778        3.74792313
 C            0.50236588        0.98989134        3.63224780
 C           -0.88974992        0.58784197        3.59659504
 C            1.02451912        1.71877599        2.56597765
 C            3.07484135        0.44775940        2.58992133
 C            2.38991534        1.61550967        2.26132360
 C            2.95961474       -1.65328814        1.60760835
 C            3.60550759       -0.36036414        1.50609204
 C            2.20995270       -2.09659742        0.52989396
 C            0.32354975       -2.58405995        1.98017170
 C            0.96296737       -2.70062456        0.73996617
 C           -1.70201369       -1.58821906        2.84631314
 C           -1.06967206       -2.53653097        2.03123480
 C           -2.86860793       -0.97992386        2.39705941
 C           -1.74628020        1.17567924        2.67296695
 C           -2.90014710        0.47082316        2.33299125
 C            0.14224686        2.31240083        1.65323005
 C           -1.24293203        2.13266784        1.78627064
 C            0.64198189        3.02175912        0.55824335
 C            2.89965837        2.34192239        1.19399699
 C            2.01316661        3.18576468        0.42048318
 C            3.72659711        0.24192171        0.25754049
 C            3.74341373        1.63619811        0.24449299
 C            2.54668404       -1.63488619       -0.73776731
 C            3.28348494       -0.45108619       -0.88013305
 C            1.92967392       -2.20690720       -1.84346405
 C            0.24820675       -3.20690299       -0.35059512
 C            0.72938881       -3.00141930       -1.64445015
 C           -1.78720636       -3.17238148        1.02546029
 C           -1.08349852       -3.58232017       -0.17779035
 C           -3.55862842       -1.49878508        1.23008828
 C           -3.08762249       -2.65444721        0.63026227
 C           -3.66814402        0.84991932        1.16162110
 C           -3.95157295       -0.36373468        0.40286120
 C           -2.09816279        2.69567176        0.83717676
 C           -3.33705495        2.01496524        0.49187123
 C           -0.16571276        3.20522045       -0.56020992
 C           -1.53940577        3.24454445       -0.38570376
 C            0.34166720        2.89377100       -1.82222679
 C            2.57337759        3.29013318       -0.91867896
 C            3.68274398        2.35358787       -1.01107318
 C            1.70056521        3.05648985       -2.05462337
 C            3.35758679        0.15650945       -2.13641929
 C            3.52709212        1.59393903       -2.23123455
 C            2.36794503        2.11865913       -2.93692385
 C            1.73159700       -1.41371303       -3.04462551
 C            2.39417173       -0.20670261       -3.15906775
 C            1.61184601        0.98440134       -3.44083781
 C           -0.19847831       -2.65567151       -2.71452367
 C            0.31285733       -1.45547208       -3.34194707
 C           -2.00524389       -3.44951453       -1.29237928
 C           -3.20188131       -2.78536590       -0.80748305
 C           -1.55868831       -2.75447320       -2.48409119
 C           -3.75673101       -0.39525776       -0.98327168
 C           -3.40486891       -1.59003762       -1.60550382
 C           -2.38495176       -1.56712183       -2.64346900
 C           -3.47910212        2.04688174       -0.94933874
 C           -2.38347191        2.82886907       -1.49008058
 C           -3.53288486        0.79151608       -1.67536316
 C           -0.39267840        2.05473755       -2.66208992
 C            0.23145321        0.95090774       -3.24375966
 C           -0.43472162       -0.27980420       -3.28163962
 C           -1.80407193       -0.34662269       -2.99540473
 C           -1.77616791        2.07228420       -2.56997140
 C           -2.50182897        0.82257143       -2.70298800
