   70
C70 / DATE: 7/ 1/2024 / Origin: Program Fullerene / C70 from database
 C            1.33763168       -0.12540925        4.58694909
 C            2.62252702       -0.40640739        3.97521704
 C            2.57973721       -1.75734121        3.44410646
 C            0.50156196       -1.30285290        4.43352132
 C            1.29165205       -2.33644962        3.78622205
 C           -0.75088644       -0.88969436        3.81884996
 C            0.58052307        1.02204695        4.12045979
 C           -0.71540725        0.55085767        3.65525262
 C            1.22901567        2.00893622        3.38997740
 C            3.09877152        0.47131776        2.92152812
 C            2.52253616        1.72604356        2.77412686
 C            2.97523611       -1.70459278        2.04484372
 C            3.32720500       -0.33325657        1.73057510
 C            2.25670981       -2.44267208        1.11418646
 C            0.66871384       -3.14924472        2.85117627
 C            1.31884716       -3.36939841        1.57133234
 C           -1.29050409       -1.66690903        2.80302704
 C           -0.73312614       -2.92063189        2.54828699
 C           -2.08440918       -1.06000343        1.82888629
 C           -1.27532402        1.12248132        2.51464012
 C           -2.01407070        0.32431408        1.63004589
 C            0.45635891        2.78657155        2.43837327
 C           -0.83127602        2.38222837        2.10648336
 C            2.51824307        2.33559626        1.45668644
 C            1.35166144        3.19593294        1.37099894
 C            2.98995018        0.18965110        0.48395507
 C            2.86449286        1.57392552        0.34691055
 C            2.18913663       -1.99463750       -0.20576009
 C            2.47585376       -0.65765002       -0.50757759
 C            1.53086320       -2.78240486       -1.14137686
 C            0.29447693       -3.86079766        0.66385368
 C           -0.99666617       -3.57842979        1.27857460
 C            0.46342363       -3.66171511       -0.69831268
 C           -2.67908330       -1.86168018        0.86299608
 C           -2.04221703       -3.11373283        0.49463550
 C           -3.19645898       -1.26019240       -0.34687543
 C           -2.64742325        0.91491615        0.52706777
 C           -3.22859348        0.12227296       -0.47087600
 C           -1.42413949        2.98098896        1.00653880
 C           -2.47919287        2.27855920        0.30626276
 C            0.81436186        3.47204869        0.11562870
 C           -0.56876613        3.60190331        0.00356589
 C            2.58568793        2.10400333       -0.90253845
 C            1.56253157        3.13575487       -1.01114059
 C            2.21491072       -0.14849212       -1.78788202
 C            2.42208288        1.20664627       -2.02722379
 C            1.12790133       -2.20595301       -2.40571625
 C            1.52800586       -0.91801134       -2.73549481
 C           -0.69580192       -3.40500277       -1.53872996
 C           -1.92212796       -3.13680322       -0.95487439
 C           -2.72761057       -2.04954025       -1.47627162
 C           -0.25368612       -2.59060067       -2.65411793
 C           -2.35471763       -1.38229984       -2.64162199
 C           -1.10760541       -1.65504968       -3.23537408
 C           -3.40943271        0.64008290       -1.75425619
 C           -3.00181031       -0.17166233       -2.89037292
 C           -2.50332914        2.79572965       -1.04825736
 C           -1.21967042        3.44182386       -1.28768928
 C           -3.06618136        2.02147713       -2.04710637
 C            0.91342052        2.97529403       -2.30323747
 C            1.60129001        1.89803144       -3.00244774
 C           -0.47056216        3.09935796       -2.41206085
 C            0.84981047       -0.29141961       -3.78206852
 C           -0.50961590       -0.71671768       -4.07690778
 C            0.90972202        1.15193515       -3.94001605
 C           -2.52811984        0.71798472       -3.92969493
 C           -2.47612040        2.06071787       -3.37308586
 C           -1.11714195        2.55228512       -3.51885138
 C           -1.25042622        0.43854639       -4.53800343
 C           -0.40334944        1.60739325       -4.35992169
