   70
C70 / DATE: 7/ 1/2024 / Origin: Program Fullerene / C70 from database
 C            1.36356779       -0.16208516        4.49552838
 C            2.60711883       -0.33502743        3.76644043
 C            2.52725510       -1.58865993        3.04037979
 C            0.50695965       -1.29983714        4.19864983
 C            1.20561981       -2.15138155        3.25986108
 C           -0.80167748       -0.79583816        3.82912683
 C            0.58431034        1.04497775        4.28493692
 C           -0.79057025        0.64338019        4.03107672
 C            1.13599939        2.10287564        3.56882027
 C            3.02203462        0.69090727        2.82847012
 C            2.39686140        1.92959479        2.85341490
 C            2.95217410       -1.34898874        1.66754508
 C            3.27482499        0.05819770        1.54100315
 C            2.24384962       -1.96765493        0.64644598
 C            0.52176098       -2.63022750        2.15250918
 C            1.25967896       -2.88212362        1.00546150
 C           -1.43846057       -1.31961810        2.70558263
 C           -0.84903485       -2.38909767        2.01589089
 C           -2.45670239       -0.57841436        2.10112450
 C           -1.60481777        1.43742639        3.23430360
 C           -2.50433465        0.80029232        2.28924533
 C            0.27526613        2.95274593        2.75993309
 C           -1.06157961        2.62531776        2.59227687
 C            2.31085152        2.68658207        1.62047815
 C            1.04342096        3.39516978        1.61167148
 C            2.93177863        0.73340348        0.37145880
 C            2.75041417        2.11780385        0.42762958
 C            2.16387040       -1.35362593       -0.60689480
 C            2.44555312        0.01017600       -0.72963794
 C            1.50188292       -2.02647324       -1.63833350
 C            0.66012012       -3.62257411        0.00875719
 C            0.98045375       -3.29387416       -1.36313367
 C           -1.50896228       -2.96021186        0.92267486
 C           -0.77926137       -3.79345759        0.07315796
 C           -3.09995247       -1.09503101        0.98630259
 C           -2.69334960       -2.38489660        0.46610842
 C           -3.34131218       -0.21408716       -0.14850235
 C           -2.62072038        1.66239975        1.12292435
 C           -1.65718012        2.73591028        1.27019884
 C           -2.81526485        1.07350219       -0.12414737
 C            0.42453170        3.58571337        0.38116146
 C           -0.87021399        3.08318108        0.18038970
 C            2.43392834        2.79616684       -0.74063682
 C            1.27757600        3.68038358       -0.71208712
 C            2.15898252        0.67534372       -1.92368125
 C            2.35910409        2.05457380       -1.98109636
 C            1.11864840       -1.33352619       -2.79607995
 C            1.44760387        0.01882667       -2.93897351
 C            0.14333985       -1.86445700       -3.65058151
 C           -0.09264846       -3.84081561       -2.16603716
 C           -1.23669802       -4.03225457       -1.28540444
 C           -0.53752872       -3.09853077       -3.31622801
 C           -3.01422542       -2.38943984       -0.95432175
 C           -3.24738713       -1.00819163       -1.35552157
 C           -2.33640839       -3.24653994       -1.80895035
 C           -1.94331264       -2.76743256       -3.12092307
 C           -0.88902000       -0.98245612       -4.15362486
 C           -2.59259957       -0.48595220       -2.46415717
 C           -2.09127452       -1.35574161       -3.43357473
 C           -2.10926328        1.55229489       -1.23616269
 C           -1.27276682        2.67256461       -1.09373140
 C           -2.15601950        0.84231113       -2.45003618
 C            0.71255733        3.70279478       -2.04218290
 C            1.55905348        2.86601399       -2.87550522
 C           -0.64248326        3.22664461       -2.20194342
 C            0.76126754        0.75878301       -3.90964426
 C           -0.58451057        0.35711612       -4.25309590
 C           -1.43887602        1.29784736       -3.55501750
 C            0.69675962        2.20023021       -3.81714976
 C           -0.68056292        2.52707112       -3.46394198
