   70
C70 / DATE: 7/ 1/2024 / Origin: Program Fullerene / C70 from database
 C            1.30789101       -0.04612047        4.29813905
 C            2.53812854       -0.17575509        3.53158803
 C            2.47023295       -1.42294826        2.79342801
 C            0.46575175       -1.19043814        3.99073946
 C            1.16492651       -2.01656475        3.03984068
 C           -0.84122812       -0.70140971        3.62903597
 C            0.49848863        1.15456890        4.15975179
 C           -0.84669245        0.74352537        3.80013945
 C            1.04499195        2.27585988        3.55997066
 C            3.07828828        0.94182819        2.91926851
 C            2.41318042        2.22708287        3.06646978
 C            3.54987778        0.84084610        1.54989271
 C            3.00825499       -1.52178527        1.50989775
 C            3.53668643       -0.38257591        0.88073001
 C            2.58471398       -2.60540067        0.74030613
 C            0.47473905       -2.55395648        1.96024589
 C            1.25731456       -3.15007799        0.98498785
 C           -1.49605856       -1.23900439        2.52532937
 C           -0.78620897       -2.03711208        1.60958442
 C           -2.63219166       -0.56484978        2.10486806
 C           -1.61464689        1.50911161        2.92329125
 C           -2.70418204        0.87175045        2.32880198
 C            0.25372408        3.01950239        2.59774758
 C           -1.06755116        2.65925055        2.33106153
 C            2.44884936        2.89872473        1.77776817
 C            3.09573966        2.02281358        0.83306321
 C            1.11590355        3.35341315        1.47433728
 C            2.55134118        1.85751291       -0.43668285
 C            3.62265143       -0.33341513       -0.51100680
 C            3.08941838        0.83284191       -1.19994866
 C            2.81802001       -2.63317255       -0.69093871
 C            3.31634766       -1.50153098       -1.31364291
 C            0.67518216       -3.49878420       -0.28724534
 C            1.71475563       -3.36051750       -1.29689690
 C           -1.29823700       -2.25199674        0.31239061
 C           -0.62093938       -3.09354657       -0.57942940
 C           -3.19507801       -0.84163432        0.80409683
 C           -2.48621139       -1.62631056       -0.09518737
 C           -3.37855997        1.46507619        1.19049911
 C           -3.83190467        0.37766714        0.33641236
 C           -1.62558502        3.16758031        1.15799154
 C           -2.85330467        2.61250731        0.62110246
 C            0.61161179        3.19067371        0.18986883
 C            1.24443513        2.30560304       -0.70246072
 C           -0.74009223        3.45324595        0.03869005
 C            0.53782674        1.80618386       -1.81703843
 C            2.39784417        0.37436452       -2.38188040
 C            2.71239645       -1.03382192       -2.55216260
 C            1.10694025        0.81785498       -2.63443947
 C            1.33981844       -3.07493220       -2.60150043
 C            1.80398573       -1.83981653       -3.22221721
 C           -1.05254357       -3.19571947       -1.89859194
 C           -0.05769183       -3.24377420       -2.95720374
 C           -2.83422502       -1.57651414       -1.44850127
 C           -2.14074973       -2.36036757       -2.36425922
 C           -3.95263105        0.58047978       -1.03037125
 C           -3.58297674       -0.50001480       -1.92778704
 C           -2.78746779        2.73176256       -0.82625631
 C           -1.41424662        3.06562709       -1.17552807
 C           -0.74043932        2.29559553       -2.11496559
 C           -3.47308027        1.82459812       -1.62066717
 C           -3.19656040        0.10663167       -3.18568199
 C           -1.48827030        1.70654304       -3.13018142
 C           -2.91215041        1.50313029       -2.92069575
 C            0.31551803        0.10028756       -3.53653015
 C            0.65884544       -1.21383985       -3.85963573
 C           -0.39198133       -2.20989560       -3.91672392
 C           -1.74653847       -1.77939241       -3.64468331
 C           -0.97803390        0.53244823       -3.80842282
 C           -2.05636317       -0.44949729       -3.88197151
