   70
C70 / DATE: 7/ 1/2024 / Origin: Program Fullerene / C70 from database
 C            1.35484313       -0.09257227        4.28119698
 C            2.59469777       -0.35719760        3.59001717
 C            2.49143112       -1.66974541        2.97297934
 C            0.49876333       -1.25807874        4.11683658
 C            1.13865371       -2.14518305        3.16461396
 C           -0.84126640       -0.78052464        3.82407096
 C            0.57986063        1.07170257        3.89741901
 C           -0.81394331        0.66827986        3.92877787
 C            1.02418798        1.90449815        2.86645825
 C            3.02537704        0.57019370        2.56579292
 C            2.32205181        1.74937558        2.34136581
 C            2.99429693       -1.56300968        1.61864509
 C            3.45856573       -0.20373971        1.41430483
 C            2.29890425       -2.17060987        0.58767341
 C            0.41272417       -2.55931423        2.05466402
 C            1.06645792       -2.78737356        0.83817610
 C           -1.55579650       -1.36699863        2.78198158
 C           -0.97154637       -2.42063428        2.06795833
 C           -2.64455235       -0.67574374        2.23934388
 C           -1.73276003        1.40243171        3.19901899
 C           -2.73271346        0.70182771        2.41024919
 C            0.09599902        2.75494553        2.24514107
 C           -1.26774693        2.52970897        2.41021707
 C            0.49052147        3.59394403        1.21101949
 C            2.70377721        2.48029345        1.22366534
 C            1.85799724        3.55047459        0.75021084
 C            3.34571383        0.36905388        0.14511941
 C            3.20922435        1.75654162        0.06504192
 C            2.59328141       -1.76705492       -0.70318574
 C            2.92562736       -0.42576321       -0.93245119
 C            2.11867568       -2.55239347       -1.73936090
 C            0.34901791       -3.34287838       -0.23234401
 C            0.89610995       -3.30130306       -1.51710353
 C           -1.70616663       -3.08511177        1.09883983
 C           -1.03277225       -3.50833637       -0.11641431
 C           -3.37783286       -1.24974038        1.20824897
 C           -3.00547087       -2.56450833        0.72956293
 C           -3.72104440       -0.43471908        0.05183346
 C           -3.06419789        1.53408313        1.26416548
 C           -2.15147006        2.66875730        1.26223513
 C           -3.42059069        0.92795358        0.06154846
 C           -0.37059635        3.72804015        0.04477087
 C           -1.63755801        3.14332233        0.05787282
 C            1.84251215        3.50055550       -0.70209960
 C            2.61748732        2.35161202       -1.12034396
 C            0.46541781        3.59388723       -1.13947343
 C            2.52865724        0.19191314       -2.12415292
 C            2.09754269        1.51436847       -2.09455532
 C            2.07687511       -2.00727387       -3.08084911
 C            2.24720123       -0.58005025       -3.24458796
 C            0.01493846       -3.01733214       -2.63756522
 C            0.79941191       -2.37472370       -3.67015214
 C           -1.88055656       -3.14289529       -1.24308953
 C           -3.09249736       -2.55683281       -0.72105628
 C           -3.43981625       -1.22008818       -1.14138831
 C           -1.28020201       -2.58797816       -2.36596945
 C           -2.73424632       -0.63146172       -2.18286683
 C           -1.72355929       -1.34162077       -2.84997663
 C           -3.10125508        1.55912603       -1.13821835
 C           -2.18790869        2.69330259       -1.14016881
 C           -2.80986255        0.75232994       -2.31394807
 C            0.03174505        2.77871475       -2.17760491
 C            0.92349397        1.87591638       -2.76702581
 C           -1.33725010        2.57403475       -2.31413339
 C           -1.83075784        1.46582140       -3.11487829
 C            1.21709577       -0.12300568       -4.15735552
 C            0.25676164       -1.20460748       -4.31925402
 C           -1.03454536       -0.70573887       -3.88670805
 C            0.47331104        1.07668886       -3.81536721
 C           -0.93872954        0.74244437       -3.88738856
