   70
C70 / DATE: 7/ 1/2024 / Origin: Program Fullerene / C70 from database
 C            0.71075124        0.10066563        5.81200538
 C            0.13244818       -1.10391169        5.23856564
 C            1.21422175       -1.99231689        4.88695227
 C            2.14623590        0.04771933        5.59204450
 C            2.46744061       -1.28515249        5.11987996
 C            2.51389251        1.19480102        4.77909295
 C            0.18937683        1.23838588        5.07212014
 C            1.30943515        1.97630242        4.54087600
 C           -0.78714168       -0.70192085        4.19499862
 C           -0.79908752        0.74561472        4.13408568
 C           -0.81742165       -1.38887579        2.98355570
 C            1.25578154       -2.52986912        3.53885145
 C            0.23584716       -2.24319440        2.62909664
 C            3.28227603       -1.43435039        3.92738920
 C            2.61941748       -2.40506319        3.07591562
 C            3.17127760        0.99447485        3.49378202
 C            3.58391962       -0.27209043        3.10233770
 C            1.28068080        2.32331211        3.13406656
 C            2.50695884        1.84844731        2.52666021
 C           -0.90184785        1.31919893        2.86912942
 C            0.10549879        2.17300448        2.40051111
 C           -1.53247141       -0.79473215        1.94728301
 C           -1.61476138        0.59853500        1.91471448
 C           -1.62458422       -1.47711682        0.74132786
 C            0.50157865       -2.42448254        1.26664600
 C           -0.54809548       -2.26885261        0.36092605
 C            2.81956676       -1.99121834        1.70404276
 C            3.41617698       -0.66991583        1.71502036
 C            1.79710865       -2.19839163        0.79183871
 C            2.44689462        1.48018022        1.18589124
 C            2.95485919        0.24560122        0.76803007
 C            0.20930148        2.32970289        1.01875855
 C            1.43819687        2.05485352        0.41590177
 C           -1.85618369        1.20494439        0.68782615
 C           -0.93933397        2.15252286        0.24977913
 C           -2.39335092       -0.91192022       -0.26904646
 C           -2.54370215        0.47602150       -0.27365907
 C           -2.46374490       -1.58233591       -1.48729059
 C           -0.25507726       -2.33323917       -0.99997601
 C           -1.31477011       -2.26754451       -1.90401419
 C            1.91836080       -1.55211117       -0.43006089
 C            2.47118060       -0.27182167       -0.43836094
 C            0.99314339       -1.86470676       -1.41417677
 C            1.44189748        1.81483643       -0.94961419
 C            2.00650559        0.62189575       -1.40009221
 C           -0.85573105        2.39672723       -1.12124789
 C            0.41648769        2.37142540       -1.70072074
 C           -2.84482899        1.10253069       -1.47988450
 C           -1.97071933        2.10747390       -1.91678538
 C           -3.35215246       -1.07015483       -2.42967558
 C           -3.57902218        0.36057805       -2.40232556
 C           -3.24778991       -1.47748572       -3.81640128
 C           -0.98187663       -2.29992583       -3.25674194
 C           -1.99126668       -2.02958142       -4.26091780
 C            1.08708635       -1.20382444       -2.63688077
 C            1.57185526        0.10831506       -2.62662543
 C            0.24105805       -1.63354148       -3.65492898
 C            0.52476471        2.25269547       -3.07717640
 C            1.11215449        1.02396653       -3.57428791
 C           -1.92827103        2.47722227       -3.26272830
 C           -0.62998172        2.56058688       -3.89273849
 C           -3.71592544        0.82375446       -3.76726028
 C           -3.55012804       -0.32264758       -4.64621645
 C           -2.82834410        1.86611951       -4.22422145
 C           -1.41557591       -1.10891621       -5.23002491
 C           -0.08187518       -0.75293006       -4.76223530
 C            0.31310357        0.57677406       -4.70239784
 C           -0.63028844        1.64169211       -5.01623888
 C           -2.39485724       -0.06714554       -5.48995205
 C           -2.01653270        1.32040561       -5.30499755
