   70
C70 / DATE: 7/ 1/2024 / Origin: Program Fullerene / C70 from database
 C            1.22026140        0.01699939        4.24985083
 C            2.51804372       -0.36162421        3.74800309
 C            2.46984778       -1.78198919        3.42965040
 C            0.39713516       -1.18213020        4.26941751
 C            1.07592898       -2.18617609        3.48529443
 C           -0.92808136       -0.79206066        3.86340988
 C            0.46982244        1.03447930        3.53968266
 C           -0.91952432        0.64353671        3.63715397
 C            0.93702802        1.52821507        2.32293087
 C            3.02929268        0.31570964        2.57717453
 C            2.24121099        1.24841984        1.89528002
 C            3.20698872       -1.97725891        2.19387729
 C            3.74981666       -0.68273493        1.81212537
 C            2.66117793       -2.80013827        1.21759004
 C            0.46393542       -2.68124475        2.33258423
 C            1.27129687       -3.22288466        1.33603608
 C           -1.61605925       -1.57672831        2.95079756
 C           -0.87803107       -2.36954267        2.04945968
 C           -2.84403083       -1.06573747        2.55836369
 C           -1.82302428        1.14783674        2.71196829
 C           -2.95994480        0.37957884        2.45542860
 C            0.01434402        2.06801924        1.42240563
 C           -1.35662485        2.01232964        1.71872889
 C            0.46144375        2.60238268        0.20519602
 C            2.62815834        1.61872556        0.60834076
 C            1.80972043        2.45365727       -0.15283334
 C            4.00436029       -0.41357080        0.47806319
 C            3.63081332        0.88890234       -0.03622708
 C            2.92549711       -2.52244325       -0.18608624
 C            3.63203642       -1.38504352       -0.54314744
 C            0.74684631       -3.38452575       -0.00268371
 C            1.74059647       -2.88432642       -0.94083618
 C           -1.42402313       -2.71873187        0.79745850
 C           -0.59076951       -3.12144718       -0.25038178
 C           -3.53250094       -1.65347461        1.43670311
 C           -2.76479953       -2.45854745        0.51771677
 C           -3.79913125        0.68192571        1.30910211
 C           -4.15503312       -0.57806961        0.67942896
 C           -2.27556791        2.52913953        0.81649754
 C           -3.46713209        1.75792336        0.50200387
 C           -0.44547285        3.23747128       -0.66006298
 C           -1.80991740        3.12438848       -0.41784015
 C           -0.05793735        3.58544205       -1.95187552
 C            2.22481467        2.74918106       -1.45020319
 C            1.30089461        3.35744129       -2.37910346
 C            3.58169377        0.74665688       -1.47611442
 C            3.21950579       -0.63759150       -1.72133252
 C            2.93315059        1.72703571       -2.19613587
 C            1.31865783       -2.10366714       -2.01748084
 C            1.99720820       -0.92162574       -2.33672626
 C           -0.96264373       -2.86097938       -1.56769343
 C            0.02264610       -2.29419666       -2.47568104
 C           -3.14564106       -2.05483620       -0.82565875
 C           -3.83251919       -0.77938596       -0.72337785
 C           -2.24584694       -2.24736631       -1.85756676
 C           -3.48696254        1.58640946       -0.93998488
 C           -2.68360655        2.65827487       -1.48799168
 C           -3.39188702        0.30422434       -1.48278412
 C           -0.91538449        3.20045093       -3.05874664
 C           -2.15320505        2.50628624       -2.75599537
 C            1.25199890        2.49819430       -3.55675621
 C            2.01765171        1.31116621       -3.23637011
 C            1.37648579        0.07526085       -3.10694964
 C           -0.13215380        2.34734279       -3.93413762
 C           -0.62855393       -1.25716080       -3.24860623
 C           -2.01431008       -1.17409594       -2.80911552
 C           -2.58759826        0.08121279       -2.60771150
 C           -2.05086185        1.16299869       -3.30681766
 C            0.05064280       -0.08307614       -3.54195248
 C           -0.72217366        1.02719344       -3.88475594
