   70
C70 / DATE: 7/ 1/2024 / Origin: Program Fullerene / C70 from database
 C            1.33681502        0.07521348        4.69399314
 C            2.50923785       -0.04611077        3.85396051
 C            2.49486861       -1.37096659        3.25454579
 C            0.51217776       -1.10224118        4.47939028
 C            1.23018282       -2.00008294        3.58762507
 C           -0.81237140       -0.65535976        4.08151976
 C            0.49072108        1.23891282        4.53727201
 C           -0.86252091        0.77902096        4.25343721
 C            0.81920510        2.22923262        3.52644271
 C            2.72157027        0.91468080        2.78497667
 C            1.87340316        2.01448679        2.62972722
 C            2.84529645       -1.23274376        1.84942620
 C            3.11610329        0.16954217        1.60339013
 C            2.11637648       -1.95038020        0.90675130
 C            0.52064447       -2.61869312        2.56472164
 C            1.18197358       -2.87770693        1.36404740
 C           -1.37410994       -1.22501044        2.94634764
 C           -0.86215468       -2.44568015        2.52816908
 C           -2.03901467       -0.42473720        2.00703073
 C           -1.37672212        1.58928119        3.16673631
 C           -0.45468162        2.69804956        3.01217518
 C           -1.87429141        0.96385394        2.02373740
 C           -0.45764203        3.38341901        1.81439877
 C            1.83443359        2.65284003        1.38595173
 C            0.80998454        3.56638651        1.14150219
 C            2.80283315        0.70487808        0.36655027
 C            2.48767419        2.05681511        0.30055475
 C            1.99673869       -1.44661226       -0.39343334
 C            2.40113572       -0.13839965       -0.67322106
 C            1.27762804       -2.17045184       -1.34649328
 C            0.54568581       -3.69063196        0.43812114
 C            0.67606806       -3.37282289       -0.97343958
 C           -1.58605338       -3.16000786        1.58924564
 C           -0.84700732       -4.01540158        0.68224186
 C           -2.55661668       -1.03483157        0.86159513
 C           -2.55766611       -2.42923934        0.79649702
 C           -2.67878883       -0.29156687       -0.31532418
 C           -1.90915317        1.67708557        0.82209931
 C           -1.39229653        2.96666015        0.78458652
 C           -2.16726454        1.00399540       -0.37239418
 C            0.49083631        3.92474629       -0.22425543
 C           -0.87987647        3.48374878       -0.46684869
 C            2.42711038        2.64781988       -0.95513330
 C            1.44170723        3.68963332       -1.20126134
 C            2.16647538        0.41375269       -1.93424022
 C            2.43455207        1.77435009       -2.11606926
 C            0.94023169       -1.57762001       -2.56610048
 C            1.42176440       -0.30356183       -2.88338566
 C           -0.07598015       -2.13658408       -3.34973093
 C           -0.54852182       -3.80201343       -1.63010535
 C           -1.53978653       -4.01825386       -0.59024178
 C           -2.66302616       -3.09860557       -0.48893861
 C           -0.94662436       -3.15157887       -2.78499279
 C           -3.11300209       -0.90994337       -1.48062195
 C           -3.00568988       -2.35553805       -1.60697843
 C           -2.30362838       -2.62872775       -2.84823018
 C           -0.92240539       -1.26414516       -4.14605995
 C           -2.76633334       -0.32521378       -2.76232508
 C           -2.26334399       -1.39659124       -3.60856815
 C           -1.85744272        1.59582462       -1.61205627
 C           -1.17326463        2.82239175       -1.65477149
 C           -2.10241873        0.89716164       -2.80541080
 C            0.97915715        3.53288741       -2.56515100
 C            1.79754511        2.50796855       -3.18743642
 C           -0.40346091        3.14731121       -2.77070602
 C            0.88114102        0.34552866       -3.99767859
 C           -0.46972549        0.01534751       -4.39544550
 C           -1.27518363        1.11957385       -3.90506449
 C            0.94933638        1.78756983       -4.10396348
 C           -0.41254479        2.27808558       -3.92269049
