   70
C70 / DATE: 7/ 1/2024 / Origin: Program Fullerene / C70 from database
 C            1.55196421        0.03673966        4.78790246
 C            0.74914129       -1.15231791        4.60348653
 C            1.31562569       -1.92926901        3.50911712
 C            2.66665436       -0.04999849        3.86824007
 C            2.46936367       -1.21292033        3.01469197
 C            2.78411561        1.24209959        3.22736854
 C            0.74009493        1.17067539        4.37501956
 C            1.49367476        1.89908335        3.37766125
 C           -0.62645089       -0.71681690        4.47160639
 C           -0.56837293        0.66348084        4.01478347
 C           -1.48098428       -1.57315147        3.80754095
 C            0.42804989       -2.50740178        2.61152290
 C           -0.87659021       -2.66669200        3.06808055
 C            0.66099286       -2.39634189        1.22777263
 C            2.64866050       -1.05602363        1.64543020
 C            1.72749389       -1.61890289        0.74802510
 C            3.36651417        1.26725729        1.97305122
 C            3.43091932        0.01559912        1.23109464
 C            2.91409786        2.26989000        1.02744169
 C            0.84804362        2.34875896        2.22954102
 C            1.64452620        2.81274100        1.18343862
 C           -1.10210916        0.98742007        2.76499084
 C           -0.46799464        1.93815876        1.95704747
 C           -2.43966558       -1.00079869        2.88747530
 C           -2.09785757        0.17210446        2.21798967
 C           -1.88497319       -3.14004957        2.15894686
 C           -2.93321047       -2.12518942        2.12799825
 C           -0.26788235       -2.93336987        0.32350815
 C           -1.50807730       -3.38282218        0.78829552
 C           -0.12952560       -2.70550010       -1.05007908
 C            1.82935475       -1.33593171       -0.62684808
 C            0.87001499       -1.84071849       -1.52070729
 C            3.47492841        0.35409876       -0.16860413
 C            3.31396470        1.79603941       -0.28179458
 C            2.81777478       -0.44977102       -1.08410731
 C            2.67413979        2.29336092       -1.41105404
 C            1.03107695        3.38167176        0.07852841
 C            1.62819576        3.20654871       -1.23952807
 C           -1.05880645        2.30289640        0.74586142
 C           -0.40161993        3.22461201       -0.06665072
 C           -2.48583888        0.35800452        0.88440394
 C           -2.09136543        1.52081625        0.21996068
 C           -3.27231111       -1.92698155        0.73929754
 C           -2.69115974       -3.04673432        0.02840383
 C           -3.14566740       -0.66203864        0.17374769
 C           -1.21157982       -3.03402625       -1.87398140
 C           -2.55088265       -2.92422298       -1.33428013
 C           -1.29203200       -2.49393838       -3.21183239
 C            0.90569164       -1.47589835       -2.88037686
 C           -0.21325950       -1.66870927       -3.68320936
 C            2.74464021        0.04941418       -2.37455524
 C            2.70437705        1.49462410       -2.54998529
 C            1.83026946       -0.53953611       -3.31834524
 C            1.81919014        1.78718792       -3.65886674
 C            1.38084767        0.51878901       -4.21149500
 C            0.54749551        3.29113934       -2.21589911
 C           -0.71096220        3.30359160       -1.48344050
 C            0.64585277        2.60151668       -3.41822882
 C           -2.56437031        1.76314509       -1.06751869
 C           -1.80522738        2.60857278       -1.97270469
 C           -3.24407385       -0.57856030       -1.21736459
 C           -3.11827835       -1.74959579       -1.96832008
 C           -2.51250167       -1.69763189       -3.28391401
 C           -3.10168649        0.65840620       -1.83698704
 C           -0.80851586       -0.52117955       -4.34937840
 C           -0.03745367        0.62229700       -4.50039037
 C           -0.50785160        1.88368873       -3.94035616
 C           -1.72057230        1.93156487       -3.25750852
 C           -2.16821206       -0.40935467       -3.85229273
 C           -2.55982459        0.74640070       -3.18866779
