   70
C70 / DATE: 7/ 1/2024 / Origin: Program Fullerene / C70 from database
 C            1.70561044       -0.06434496        4.99481529
 C            0.85744922       -1.22395277        5.20188887
 C            1.33005260       -2.27243871        4.32120620
 C            2.62498742       -0.36672709        3.91004306
 C            2.37467765       -1.72221526        3.47128199
 C            2.51894326        0.69583858        2.93376608
 C            0.85865613        1.02218992        4.54413558
 C            1.49246768        1.62038253        3.38119554
 C           -0.48882897       -0.88140467        4.77054738
 C           -0.48972722        0.51096215        4.37918037
 C            0.16641153       -2.84357822        3.67304718
 C           -0.90806024       -1.86695962        3.79250573
 C            0.36098014       -3.43433296        2.43908319
 C            2.31238553       -1.99173466        2.10526521
 C            1.57520512       -3.10191135        1.70696616
 C            2.54664245        0.37593026        1.58312178
 C            2.53690652       -0.96466529        1.17695571
 C            2.11079764        1.34461957        0.68245422
 C            0.66667173        2.17390851        2.40780228
 C            1.16295049        2.27723702        1.10685852
 C           -1.16176670        0.88148341        3.22356397
 C           -0.70887684        2.01794719        2.56660936
 C           -1.56425676       -1.43561547        2.63602255
 C           -1.85837066       -0.07704442        2.47490912
 C           -0.70900668       -3.35652457        1.47012608
 C           -1.59035995       -2.27661473        1.52187262
 C            1.28692066       -3.29815739        0.29915554
 C           -0.10391056       -3.70641511        0.20215397
 C            2.42866804       -1.23445490       -0.19083321
 C            1.77838493       -2.39434405       -0.63301545
 C            2.27368185        1.10804973       -0.67653867
 C            2.60540433       -0.18482497       -1.08975275
 C            1.76872411        2.03133576       -1.59395432
 C            0.38599961        2.93915052        0.15623990
 C            0.76956051        2.92342873       -1.18640633
 C           -1.54122369        2.56810655        1.61181496
 C           -0.93644329        3.23882279        0.48071235
 C           -2.52072507        0.34929731        1.31811628
 C           -2.59090095        1.72332811        1.07722476
 C           -2.18756839       -1.83930440        0.33811882
 C           -2.70984304       -0.54584295        0.25923877
 C           -0.79778099       -3.39879665       -0.95276509
 C           -1.98661223       -2.57722972       -0.83150287
 C            1.24371078       -2.42876627       -1.92382004
 C           -0.05847029       -2.89661432       -2.09888449
 C            2.61384029       -0.48947411       -2.44368711
 C            1.77301729       -1.58121998       -2.88901795
 C            2.09023946        1.88844047       -2.94289211
 C            2.49456006        0.58200949       -3.41427780
 C            1.21078579        2.43258943       -3.95818700
 C           -0.09555396        3.49104677       -2.12554581
 C            0.07898812        3.22611085       -3.53808504
 C           -1.94222560        3.26972254       -0.56446951
 C           -2.90869757        2.22519340       -0.25021801
 C           -1.52219653        3.45140328       -1.87204578
 C           -3.24481299       -0.09319118       -0.95007424
 C           -3.30001497        1.33060190       -1.23272661
 C           -2.20843738       -1.96188736       -2.12751205
 C           -0.98858908       -2.11841115       -2.90444655
 C           -2.89876005       -0.76894469       -2.18934986
 C            0.88177016       -1.03274676       -3.89648274
 C            1.51790423        0.16262667       -4.40888658
 C            0.69318753        1.30685056       -4.72023395
 C           -0.49292734       -1.05729493       -3.65973793
 C           -1.12726506        2.55056604       -3.99505895
 C           -2.11745211        2.65714132       -2.93546488
 C           -2.86829444        1.53440101       -2.60831047
 C           -2.47794395        0.23924654       -3.14368634
 C           -0.72910420        1.23083782       -4.45256168
 C           -1.26213556        0.10717895       -3.81756724
