   70
C70 / DATE: 7/ 1/2024 / Origin: Program Fullerene / C70 from database
 C            1.22312429       -0.12126007        4.36778814
 C            2.45651097       -0.41266647        3.67452461
 C            2.32638489       -1.73148156        3.07422461
 C            0.36238626       -1.28794612        4.23960863
 C            0.95366754       -2.15759394        3.24522995
 C           -0.98492370       -0.80529327        4.01445421
 C            0.44621765        1.02867783        3.94700256
 C           -0.94268796        0.64770251        4.10612448
 C            0.83066973        1.74580370        2.81154321
 C            2.89313922        0.49052063        2.62996525
 C            2.13811982        1.61889049        2.31450616
 C            2.85975255       -1.65333333        1.72893041
 C            3.40653740       -0.32427822        1.54252105
 C            2.14426271       -2.20821261        0.68142031
 C            0.20924373       -2.48295437        2.11697891
 C            0.86363691       -2.72832997        0.90432139
 C           -1.76238939       -1.39310662        3.01890468
 C           -1.17673807       -2.30818683        2.13351171
 C           -2.94517755       -0.75089263        2.65806849
 C           -1.91154362        1.38020457        3.44115522
 C           -3.06709156        0.67198932        2.91889148
 C           -0.14464769        2.43052421        2.07028269
 C           -1.49011710        2.33680523        2.42970612
 C            0.17585911        2.96721202        0.82231924
 C            2.50016494        2.30939107        1.16369770
 C            1.51238526        3.11380828        0.47679185
 C            3.41648002        0.22011747        0.26057404
 C            3.26301987        1.60139878        0.14604899
 C            2.50997543       -1.85040758       -0.60847790
 C            3.09355776       -0.59668043       -0.83060789
 C            1.97342907       -2.57762200       -1.66258713
 C            0.14593928       -3.25610433       -0.17316655
 C            0.76020152       -3.33921177       -1.42304837
 C           -1.92793922       -2.81611976        1.07926700
 C           -1.24498226       -3.32966483       -0.09750832
 C           -3.54129052       -1.00487492        1.35840178
 C           -3.09824837       -2.08608401        0.61969628
 C           -3.46565287        1.31439109        1.67917659
 C           -2.49063592        2.34384937        1.37713403
 C           -3.69753587        0.27656646        0.69145416
 C           -0.81399274        3.06549896       -0.16095744
 C           -2.05941960        2.48479977        0.06615464
 C           -0.47411722        3.42836832       -1.46072320
 C            1.89698352        3.18080389       -0.92397216
 C            2.94572376        2.19565536       -1.14179736
 C            0.91324858        3.36740697       -1.88371507
 C            3.08838311       -0.04589840       -2.11134684
 C            2.91446149        1.38731053       -2.26979189
 C            1.88674882       -1.98725652       -2.98749490
 C            2.35119330       -0.69742267       -3.17933749
 C           -0.05728270       -3.25037347       -2.61995308
 C            0.60299101       -2.35165764       -3.55069425
 C           -2.05213605       -2.96874370       -1.25623704
 C           -2.97521231       -1.94311496       -0.81898690
 C           -1.43708577       -2.82578831       -2.48778955
 C           -3.17511554        0.44950434       -0.58802687
 C           -2.63140382        1.68688731       -0.92897245
 C           -2.89601466       -0.66959518       -1.38096624
 C           -1.28869220        2.92643952       -2.55076915
 C           -2.29143181        1.91897541       -2.25349707
 C            0.96539075        2.61959047       -3.13150056
 C            1.89887492        1.60378256       -3.28962907
 C            1.47441141        0.29886541       -3.78242782
 C           -0.39819912        2.39059090       -3.56637543
 C           -0.33195311       -1.29692172       -3.89595350
 C           -1.58471997       -1.56846832       -3.20626236
 C           -2.28558921       -0.50645053       -2.63089167
 C           -2.04982137        0.77789352       -3.11679769
 C            0.11676447        0.01819010       -3.97832090
 C           -0.82605221        1.03558065       -3.86179644
