   70
C70 / DATE: 7/ 1/2024 / Origin: Program Fullerene / C70 from database
 C            1.03860836       -0.12334464        4.95631147
 C            2.32917100       -0.37564834        4.34409075
 C            2.21616122       -1.59713590        3.55703436
 C            0.18889771       -1.26316445        4.65746767
 C            0.83208638       -2.02320448        3.59999445
 C           -1.14686944       -0.75978942        4.42725027
 C            0.30234636        1.07881425        4.59776531
 C           -1.07855660        0.69426241        4.37731393
 C            0.87958776        2.01478424        3.74815160
 C            2.91670182        0.63852863        3.48832849
 C            2.25465806        1.84868091        3.29663939
 C            2.82439686       -1.34522103        2.26464299
 C            3.48293445       -0.05439457        2.34307053
 C            2.12514728       -1.67259243        1.10502277
 C            0.15463153       -2.23427851        2.39913267
 C            0.87767001       -2.29776352        1.20130802
 C           -1.84522564       -1.19032641        3.23498536
 C           -1.23495857       -2.07780277        2.35044363
 C           -1.75080751        1.12245730        3.15772943
 C           -2.48349564       -0.02277908        2.66629574
 C            0.10775560        2.54475883        2.63100102
 C           -1.07615322        1.92357871        2.24275575
 C            2.37539875        2.53058615        2.01945422
 C            1.04838738        2.97962450        1.61938556
 C            3.69708430        0.64256589        1.16416750
 C            3.22528707        2.01537114        1.04950628
 C            2.50902177       -1.08862952       -0.10473551
 C            3.39020009       -0.01667417       -0.09443751
 C            1.75485352       -1.33474763       -1.24849061
 C            0.21101487       -2.65996059        0.03201667
 C            0.78623781       -2.32993252       -1.19743571
 C           -1.87273049       -2.27162489        1.12759361
 C           -1.16153200       -2.89502647        0.10674319
 C           -2.79442395       -0.09211866        1.32123634
 C           -2.87380638       -1.36290536        0.77701123
 C           -1.39261768        1.82062859        0.88290513
 C           -2.40434642        0.94525163        0.47200851
 C            0.69090205        2.90908903        0.27847504
 C           -0.58436607        2.44293631       -0.07279872
 C            2.89663071        2.23834701       -0.34641057
 C            3.22192984        1.02570501       -1.07932189
 C            1.71210476        2.89186840       -0.67132691
 C            1.80495112       -0.45413723       -2.34424942
 C            2.48965263        0.76693829       -2.23032164
 C            0.98009724       -0.68639267       -3.45997362
 C            0.17865998       -2.73924046       -2.37296030
 C            0.21251894       -1.85103305       -3.51930007
 C           -1.85571789       -3.26400053       -1.04078303
 C           -1.14177292       -3.33021253       -2.30159143
 C           -3.46955143       -1.47271479       -0.46536853
 C           -3.12674274       -2.61316305       -1.29077501
 C           -2.70267611        0.81866839       -0.88998240
 C           -3.44783894       -0.29245268       -1.30939688
 C           -0.95108809        2.40949859       -1.42018406
 C           -2.00179995        1.57575105       -1.83382886
 C            1.36019309        2.90335448       -2.01076818
 C            1.95645503        1.88506435       -2.85656039
 C           -0.04493809        2.91791911       -2.35085890
 C            0.64563094        0.36967194       -4.31191032
 C            1.08421096        1.70790122       -3.99087587
 C           -0.10910038        2.50373858       -3.73749939
 C           -2.23134541        1.34047105       -3.19389568
 C           -0.72715383        0.50259223       -4.76060558
 C           -1.24370252        1.73018913       -4.17556591
 C           -1.13504177       -1.79305702       -4.07616813
 C           -1.96889527       -2.70825208       -3.32284747
 C           -3.15444752       -2.18209432       -2.67584568
 C           -3.38195151       -0.74485196       -2.69002214
 C           -1.65829060       -0.55721615       -4.43514474
 C           -2.71023266        0.03828656       -3.61499782
