   70
C70 / DATE: 7/ 1/2024 / Origin: Program Fullerene / C70 from database
 C            1.52411405        0.03314938        4.45169404
 C            0.70481961       -1.14969516        4.25862370
 C            1.49490447       -2.10140290        3.51387622
 C            2.65514689       -0.06224424        3.54474671
 C            2.68509269       -1.41174126        3.03149217
 C            2.56392799        1.02449323        2.59261541
 C            0.73670009        1.17553302        4.04211390
 C            1.47680155        1.88761847        3.01478207
 C           -0.56231304       -0.73865810        3.69130758
 C           -0.59763434        0.71036497        3.70342074
 C           -1.02982741       -1.41178975        2.56839038
 C            0.85276141       -2.95319398        2.62534781
 C           -0.45760284       -2.64088068        2.21895883
 C            1.68883822       -3.63034672        1.74487032
 C            3.06397894       -1.62488633        1.70916373
 C            2.81746199       -2.89925892        1.19886436
 C            2.69934060        0.74171581        1.23735216
 C            3.11977819       -0.53264248        0.82799817
 C            2.14934559        1.63104476        0.30524982
 C            0.73135397        2.52844957        2.03688846
 C            1.23695868        2.60647913        0.73912073
 C           -1.24348255        1.36718084        2.66783857
 C           -0.64928134        2.52939545        2.19235092
 C           -1.86063452       -0.73903347        1.66026621
 C           -2.05597798        0.64226156        1.79119418
 C           -2.32189085       -1.39465967        0.51561931
 C           -1.07469919       -3.39552581        1.22690335
 C           -1.97002758       -2.72875721        0.29955782
 C            1.12292942       -4.44401875        0.69361707
 C           -0.30111636       -4.36351384        0.46531591
 C            2.84977558       -3.13963082       -0.23358396
 C            1.79874614       -4.09389490       -0.54678517
 C            3.33827510       -0.76251942       -0.52590558
 C            3.05320595       -2.07066529       -1.08916267
 C            2.39745360        1.44591606       -1.05880115
 C            2.90236931        0.22571258       -1.49414794
 C            1.71030763        2.21305708       -1.99170600
 C            0.51616739        3.36351029       -0.19014880
 C            0.81312366        3.25727829       -1.54443708
 C           -1.38980682        3.31570597        1.33584362
 C           -0.70431736        3.91120233        0.20637114
 C           -2.72988442        1.35430316        0.78954650
 C           -2.61011812        2.74721652        0.80810353
 C           -2.72431864       -0.63202728       -0.58501763
 C           -3.10042711        0.69941881       -0.39347684
 C           -2.40604680       -1.08970951       -1.87098521
 C           -1.56742371       -3.11263882       -1.04014073
 C           -0.49957096       -4.07560502       -0.94357790
 C            0.78177011       -3.72507988       -1.51703544
 C           -1.47668987       -2.10395525       -1.97813749
 C            2.13768005       -1.87324123       -2.20278213
 C            2.20387270       -0.47323531       -2.56441966
 C            0.90588542       -2.51806107       -2.20381600
 C           -0.23864151       -1.79385757       -2.55936941
 C            1.07836330        1.53346763       -3.11249008
 C            1.10063789        0.14144196       -3.14262552
 C           -0.10306745       -0.57057505       -3.23768634
 C           -0.24223337        3.38495301       -2.54288724
 C           -0.12975440        2.25522867       -3.45809188
 C           -1.72645133        4.21153136       -0.78280275
 C           -2.94655811        3.53572260       -0.35936953
 C           -1.49133054        3.86977535       -2.17092150
 C           -3.60786881        1.42095769       -1.47906418
 C           -3.50449638        2.86561206       -1.50682364
 C           -2.69546164        3.22303701       -2.66300472
 C           -2.50164270       -0.23260088       -2.94866721
 C           -1.26761806        0.09516781       -3.63557628
 C           -1.25560497        1.53588994       -3.82917466
 C           -3.29134976        0.96760488       -2.81614416
 C           -2.57671737        2.03814934       -3.49063902
