   70
C70 / DATE: 7/ 1/2024 / Origin: Program Fullerene / C70 from database
 C            1.43965271       -0.30402261        5.08983498
 C            0.58937197       -1.46980247        4.94756286
 C            1.18168749       -2.32885672        3.93733597
 C            2.56113087       -0.46182296        4.18028827
 C            2.35051291       -1.66336278        3.40128099
 C            2.70825792        0.78344161        3.46000458
 C            0.68400337        0.85399938        4.64232311
 C            1.52359676        1.59055111        3.72615882
 C           -0.69092376       -1.02230472        4.42830623
 C           -0.59909061        0.39849390        4.15731238
 C            0.13156275       -2.69284683        3.01233431
 C           -1.04013833       -1.89528443        3.32441412
 C            0.44468532       -2.83720130        1.66953933
 C            2.48711351       -1.57713441        2.01868926
 C            1.67949396       -2.37271410        1.19416587
 C            3.17009566        0.74553162        2.14892150
 C            3.15972110       -0.48141608        1.46869458
 C            3.00374767        1.91533826        1.41642104
 C            0.93538510        2.24261748        2.64593387
 C            1.80894973        2.70146307        1.67097645
 C           -1.03889487        0.84874707        2.91744875
 C           -0.37017737        1.89363337        2.26561118
 C           -1.73843569       -1.35674916        2.24776841
 C           -1.88948839        0.02979008        2.17491182
 C           -0.62130178       -2.87920018        0.78241537
 C           -1.73125757       -2.07269303        1.05049889
 C           -0.34553496       -3.25363574       -0.51803377
 C            1.92550514       -2.39919379       -0.18567103
 C            0.98189673       -2.97892930       -1.03454345
 C            3.48075315       -0.51638058        0.11512868
 C            2.86273965       -1.52373742       -0.73067892
 C            3.24699815        1.91879416       -0.01262393
 C            3.54860695        0.72185128       -0.64470532
 C            1.29153262        3.14474443        0.39620713
 C            2.28810958        2.83265111       -0.61271114
 C           -0.88564620        2.33722111        1.04110092
 C           -0.05103411        2.95460229        0.09998434
 C           -2.49738651        0.56274892        1.04593185
 C           -2.11753887        1.83653647        0.62323584
 C           -2.51371260       -1.59383653       -0.00251084
 C           -3.06223963       -0.31606111        0.12516483
 C           -1.30546359       -2.96438217       -1.56162833
 C           -2.42505159       -2.19713662       -1.26217076
 C            0.82135662       -2.46194859       -2.38558735
 C           -0.55731736       -2.68624730       -2.77680486
 C            2.61204433       -0.92495475       -2.03593267
 C            3.03566953        0.46213322       -1.98053007
 C            1.46206753       -1.27860882       -2.73883109
 C            1.86666325        2.62719658       -1.91747962
 C            2.28002606        1.42655256       -2.63002541
 C           -0.46128445        3.05663426       -1.23302714
 C            0.47387719        2.87709984       -2.25038670
 C           -2.69039527        2.36195415       -0.52900712
 C           -1.80677921        2.90406897       -1.54234227
 C           -3.87260833        0.20052563       -0.87631193
 C           -3.72841526        1.60336347       -1.20740692
 C           -3.18132621       -1.70312453       -2.32220741
 C           -4.00868196       -0.53122672       -2.11807105
 C           -1.12720140       -1.86297024       -3.73248539
 C           -2.54562090       -1.56563889       -3.62192269
 C            0.79936775       -0.33071104       -3.53211080
 C            1.17283613        1.00974042       -3.47200887
 C            0.13714479        2.02668971       -3.37883930
 C           -0.44343309       -0.63033358       -4.08996357
 C           -2.17320270        2.29508971       -2.81330220
 C           -3.48511752        1.69532781       -2.63727734
 C           -3.75439222        0.39472829       -3.21313662
 C           -2.75267464       -0.20077831       -4.07176239
 C           -1.18931009        1.65747901       -3.57497161
 C           -1.44508693        0.42390748       -4.17889665
