   70
C70 / DATE: 7/ 1/2024 / Origin: Program Fullerene / C70 from database
 C            1.16438526        0.04088165        4.36572126
 C            2.42090620       -0.20522794        3.69789335
 C            2.36635326       -1.55148462        3.15080366
 C            0.32548555       -1.13288107        4.17722930
 C            0.99788876       -2.00497821        3.23798145
 C           -1.00994064       -0.67367048        3.84819111
 C            0.38783651        1.19593305        3.96921025
 C           -1.00117373        0.78227195        3.86798541
 C            0.88438702        2.08650808        3.02356681
 C            2.82363296        0.68325586        2.62310395
 C            1.99308479        1.72946429        2.23444806
 C            2.98302981       -1.51278991        1.84712829
 C            3.41831524       -0.14695783        1.59606872
 C            2.40061237       -2.21096482        0.79705866
 C            0.32994430       -2.35712571        2.06973124
 C            1.04677946       -2.57312803        0.88109924
 C           -1.71790914       -1.31627448        2.84130694
 C           -1.06189990       -2.25178769        2.03112580
 C           -2.84883033       -0.67100966        2.35745008
 C           -1.85348080        1.48074663        3.00860291
 C           -2.87894119        0.78291538        2.36637067
 C           -0.00656159        3.04412532        2.55816375
 C           -1.41663621        2.69349019        2.46716570
 C            0.33568994        3.83204959        1.39467346
 C            2.14605695        2.25403250        0.94616877
 C            1.45100198        3.40359998        0.58094891
 C            3.42808588        0.29816411        0.27761753
 C            2.84240584        1.53149423       -0.03341274
 C            2.95804280       -1.98798389       -0.45162735
 C            3.52997129       -0.67737920       -0.71410840
 C            2.25422536       -2.41366256       -1.63978116
 C            0.35944582       -2.99598162       -0.26704667
 C            0.95685377       -2.89824406       -1.52922494
 C           -1.74752213       -2.85512855        0.98520289
 C           -0.99700687       -3.30499260       -0.17239170
 C           -3.47944899       -1.12995329        1.13254862
 C           -2.99228803       -2.27122350        0.51186387
 C           -3.31842126        1.21118582        1.04823287
 C           -3.80864526        0.04357205        0.33720294
 C           -1.87813533        3.09509881        1.14646399
 C           -0.83634165        3.88992835        0.53316345
 C           -2.58202170        2.17960628        0.37600427
 C            1.04351362        3.57319882       -0.80001166
 C           -0.40782758        3.55165774       -0.80715605
 C            2.75671502        1.93290642       -1.36865203
 C            1.71346892        2.85918382       -1.77479369
 C            3.26882573       -0.34552633       -2.10332067
 C            2.58708940       -1.48013280       -2.70655024
 C            2.88247164        0.94545060       -2.42889963
 C            1.67178231       -1.27071437       -3.72934763
 C            0.17470286       -2.97617492       -2.68153758
 C            0.53605048       -2.17020217       -3.83465885
 C           -1.85503268       -3.15910127       -1.33648963
 C           -3.00743781       -2.36629467       -0.93833404
 C           -1.27240066       -2.95109557       -2.57715247
 C           -3.68845848       -0.00252490       -1.04343569
 C           -3.38454515       -1.26408304       -1.69907067
 C           -2.23925664        1.98213679       -0.96878213
 C           -1.06439937        2.53298682       -1.49399234
 C           -2.93975004        1.04393863       -1.71982007
 C            0.93446913        2.18667869       -2.79761305
 C            1.78670614        1.15993407       -3.36503358
 C            1.19116555        0.07751082       -3.99609351
 C           -0.41165130        1.90675739       -2.56187009
 C           -0.62727217       -1.37757479       -4.19468653
 C           -1.75697042       -1.87507748       -3.43176273
 C           -2.66746002       -0.95767159       -2.92422028
 C           -2.30994902        0.45506402       -2.88729074
 C           -0.25934032        0.02049940       -4.06392400
 C           -1.02442551        0.85277544       -3.24540560
