   70
C70 / DATE: 7/ 1/2024 / Origin: Program Fullerene / C70 from database
 C            1.31837387       -0.01256016        4.50605802
 C            2.60259297       -0.17825634        3.85361732
 C            2.57257564       -1.43772053        3.12722195
 C            0.49332113       -1.15775160        4.15941714
 C            1.23213076       -1.98106318        3.22568611
 C           -0.80580597       -0.66645137        3.75413537
 C            0.54780136        1.18936047        4.24185782
 C           -0.78640468        0.78383263        3.81616151
 C            1.16262959        2.26909305        3.62161446
 C            3.06623356        0.85118511        2.93959950
 C            2.41011982        2.07446794        2.88924788
 C            3.12235561       -1.20750702        1.80352714
 C            3.44889355        0.20113779        1.69754574
 C            2.51836032       -1.81963289        0.70909258
 C            0.60363977       -2.39086170        2.05587180
 C            1.38002881       -2.60077534        0.91906470
 C           -1.44269823       -1.25648758        2.67533265
 C           -0.77972686       -2.22861235        1.91625368
 C           -2.47781583       -0.55112038        2.08690477
 C           -1.46329079        1.50749950        2.82835046
 C           -2.36844588        0.84109299        1.99254531
 C            0.34134806        3.18454275        2.85552659
 C           -0.98103175        2.75671216        2.43583287
 C            2.28261500        2.75122446        1.61117414
 C            1.08139016        3.56061295        1.66167675
 C            3.21649349        0.82753093        0.47883107
 C            2.56648397        2.06638523        0.43425378
 C            2.74901972       -1.28568713       -0.56218887
 C            3.20591949        0.03691958       -0.66607230
 C            2.23214588       -1.95031079       -1.68159114
 C            0.79978646       -3.24329602       -0.16124793
 C            1.28799872       -2.95827617       -1.49788360
 C           -1.41819930       -2.75974619        0.78616139
 C           -0.64899254       -3.33705319       -0.22363754
 C           -3.29659581       -1.23977579        1.20823152
 C           -2.72103430       -2.35802862        0.48328535
 C           -4.13548175       -0.49207448        0.29566718
 C           -2.82157837        1.48979626        0.83931619
 C           -3.82306453        0.90385172        0.07285178
 C           -1.14769436        3.17387998        1.05480291
 C            0.16565716        3.50682422        0.53503577
 C           -2.00795625        2.45104470        0.24646794
 C            1.89899557        2.43970697       -0.73571955
 C            0.58564617        2.90443364       -0.64820415
 C            3.13456805        0.69741109       -1.88322493
 C            2.33784073        1.90667024       -1.93934466
 C            2.40727118       -1.41751713       -2.95621278
 C            2.88310118       -0.05865573       -3.08879316
 C            1.36012704       -1.59882657       -3.94690343
 C            0.16086698       -3.06906854       -2.41239024
 C           -1.04565591       -3.15792901       -1.61303055
 C            0.14812637       -2.30518338       -3.56528566
 C           -3.11784844       -2.22515185       -0.91145935
 C           -4.11039428       -1.17093502       -0.98910368
 C           -2.14725140       -2.35703328       -1.90428903
 C           -3.81510602        1.12480443       -1.36252420
 C           -3.96937867       -0.16657758       -2.01519053
 C           -1.71236965        2.34104286       -1.11086848
 C           -0.38056282        2.40114036       -1.52620366
 C           -2.66507249        1.78969199       -1.95405741
 C            1.38105437        1.73344311       -3.01572186
 C            1.90169619        0.67971875       -3.86743701
 C            0.97721537       -0.27980483       -4.42588109
 C            0.01930871        1.78045228       -2.71674928
 C           -0.97642954       -1.41795851       -3.80788149
 C           -2.10076712       -1.45603488       -2.98403364
 C           -2.88769184       -0.30381223       -2.96572568
 C           -2.22710422        0.98663749       -3.07672839
 C           -0.43335007       -0.11450534       -4.15286586
 C           -0.88893316        0.99989507       -3.44977002
