   70
C70 / DATE: 7/ 1/2024 / Origin: Program Fullerene / C70 from database
 C            1.20542289        0.09205157        4.81282048
 C            2.40519019       -0.12925386        4.03351924
 C            2.42960539       -1.53229321        3.66344162
 C            0.36172562       -1.08438269        4.67008678
 C            1.14387313       -2.11344398        4.01409564
 C           -0.88424630       -0.66032050        4.05156292
 C            0.39053223        1.24402559        4.50126373
 C           -0.95602803        0.77019672        4.21134132
 C            0.77360036        2.10190202        3.39435860
 C            2.62241380        0.65116546        2.82303502
 C            1.76836483        1.70268094        2.49992027
 C            2.88043349       -1.61610801        2.28402690
 C            3.02701201       -0.26488473        1.77371607
 C            2.31927030       -2.56900439        1.44707077
 C            0.51323904       -2.91497244        3.07583706
 C            1.26896573       -3.35747822        1.92270887
 C           -1.26851287       -1.24042846        2.84224642
 C           -0.79619166       -2.51791170        2.56947569
 C           -1.76216300       -0.44269077        1.79306649
 C           -1.45203776        1.55606972        3.10816262
 C           -0.47302523        2.59210467        2.84973548
 C           -2.01505657        0.92177038        2.00465456
 C           -0.46769580        3.11975793        1.57445111
 C            1.65012391        2.09618346        1.16542306
 C            0.72645422        3.09466265        0.85762477
 C            2.64021761       -0.00256878        0.46270277
 C            2.09020659        1.24015008        0.14502531
 C            2.42425645       -2.38048036        0.07286530
 C            2.47906242       -1.06786547       -0.42577726
 C            1.92495650       -3.39470720       -0.73332889
 C            0.27927370       -3.84083761        0.97866580
 C           -0.92336173       -3.06279399        1.23234734
 C            0.67277511       -4.01005285       -0.33349724
 C           -1.90250384       -0.98065548        0.49875887
 C           -1.44175547       -2.27038254        0.21175980
 C           -2.40554584       -0.18604267       -0.53889401
 C           -2.27727502        1.73262871        0.90373756
 C           -1.63948618        2.97764745        0.84972201
 C           -2.73462207        1.14926528       -0.27272810
 C           -1.76724492        3.76494298       -0.28193853
 C            0.70800140        3.60225238       -0.43722704
 C           -0.53507892        4.18602419       -0.92207773
 C            1.75410392        1.51763711       -1.18295094
 C            1.24606598        2.77413332       -1.50336094
 C            2.12312641       -0.80017623       -1.75348119
 C            1.62627123        0.46562128       -2.09717627
 C            1.85868752       -3.19024643       -2.16275953
 C            2.05230756       -1.84918060       -2.66626411
 C           -0.26942144       -3.65627818       -1.37076169
 C           -1.19961676       -2.64308334       -1.11337953
 C            0.52753517       -3.60527860       -2.57667939
 C           -2.38043278       -0.67070435       -1.85759842
 C           -1.65192355       -1.82638844       -2.15384902
 C           -2.71040763        0.17335638       -2.91943587
 C           -3.17985539        1.98812198       -1.28976823
 C           -2.69204770        3.35390665       -1.31632067
 C           -3.17755802        1.51685703       -2.65289876
 C           -0.64937234        3.88931739       -2.33554940
 C            0.37793719        2.91197028       -2.65973346
 C           -2.03898607        3.56910314       -2.59744027
 C           -2.33175106        2.42081696       -3.42316833
 C            0.86042689        0.64243842       -3.26472625
 C           -1.77817796        0.28278805       -4.02701882
 C            0.05215259        1.77261126       -3.38677764
 C           -1.23230708        1.61947604       -3.92295778
 C            1.17302583       -1.72930925       -3.80574482
 C            0.11284862       -2.71256154       -3.62584107
 C           -1.10370508       -1.95483670       -3.43602625
 C            0.51907616       -0.46093801       -4.04079256
 C           -0.89114792       -0.75509587       -4.21130030
