   70
C70 / DATE: 7/ 1/2024 / Origin: Program Fullerene / C70 from database
 C            1.13014329        0.05295370        4.65074448
 C            2.40521455       -0.32282194        4.09797618
 C            2.28937035       -1.70745791        3.65356341
 C            0.31332985       -1.14854121        4.65270711
 C            0.88158781       -2.02283402        3.64859976
 C           -1.04821653       -0.71617319        4.48028082
 C            0.35830214        1.06273186        3.95801347
 C           -1.01784280        0.72083001        4.22940737
 C            0.71901458        1.42864375        2.65828602
 C            2.90384528        0.41762532        2.95997341
 C            2.03246725        1.21637744        2.21230484
 C            3.01164227       -1.79938701        2.40934007
 C            3.72186363       -0.54066007        2.25591016
 C            2.37509548       -2.32793013        1.29074743
 C            0.22262875       -2.17886522        2.42344157
 C            0.96903141       -2.32583891        1.24058897
 C           -1.81418032       -1.28939495        3.39696502
 C           -1.16079354       -1.95724562        2.35434319
 C           -2.00530916        0.97835062        3.20558367
 C           -2.75695102       -0.25219607        3.05314655
 C           -0.27234605        1.81305168        1.74409311
 C           -1.63247963        1.65572362        2.04859049
 C            0.09172004        2.19519562        0.45351689
 C            2.36394033        1.48265127        0.87962948
 C            1.40398192        2.00197509        0.00898521
 C            4.15198437       -0.20999394        0.98763791
 C            3.54136858        0.94682134        0.34937712
 C            3.10266397       -2.28203020        0.10763106
 C            4.14200549       -1.27068502        0.00043076
 C            2.41779344       -2.33508825       -1.16646612
 C            0.30550165       -2.33740822        0.00371699
 C            1.02999927       -2.34377382       -1.19719242
 C           -1.81965214       -2.05018065        1.12555825
 C           -1.09175492       -2.32648209       -0.03377092
 C           -3.47463284       -0.41111039        1.88866839
 C           -3.10695572       -1.51213631        1.01925953
 C           -2.55982810        1.68077063        1.00761629
 C           -3.58798540        0.73390733        1.01179996
 C           -0.89086231        2.62551339       -0.43978912
 C           -2.23223619        2.31142728       -0.19076421
 C           -0.49767629        3.13072985       -1.67663397
 C            1.70666662        2.12148202       -1.35281616
 C            0.79942281        2.75053021       -2.20043385
 C            3.64596089        0.74305230       -1.08489940
 C            4.02032163       -0.64551625       -1.29727305
 C            3.13840169       -1.47329081       -2.09395354
 C            2.67431462        1.28685911       -1.91279760
 C            2.41850194       -0.84535942       -3.09580650
 C            2.37157637        0.60754899       -3.09160974
 C            0.39188967       -2.03922759       -2.40130232
 C            1.06555689       -1.29168024       -3.36190256
 C           -1.74527839       -2.35261467       -1.26601250
 C           -0.98816684       -2.11514921       -2.47787350
 C           -3.65859303       -1.19315516       -0.28859293
 C           -4.06795509        0.20646196       -0.24965301
 C           -3.03078482       -1.69295013       -1.41704223
 C           -3.14032783        2.21050882       -1.24735456
 C           -3.92180407        0.99690530       -1.37621004
 C           -1.42518746        3.12750636       -2.79170710
 C           -2.75310231        2.59841945       -2.58572039
 C            0.58901605        2.20146646       -3.53374777
 C            1.20109465        1.00032118       -3.85039687
 C            0.37377584       -0.19061270       -4.01368958
 C           -0.81365708        2.35603506       -3.85832194
 C           -1.71026232       -1.13576725       -3.28050134
 C           -2.99094691       -0.89367039       -2.63346902
 C           -3.53525712        0.38473965       -2.63538359
 C           -2.90401288        1.42119700       -3.43234879
 C           -1.01109551       -0.08992738       -3.88877630
 C           -1.61486077        1.15884268       -4.04422201
