   70
C70 / DATE: 7/ 1/2024 / Origin: Program Fullerene / C70 from database
 C            1.63760375        0.02937463        4.59734058
 C            0.82450802       -1.17193584        4.55465775
 C            1.46502859       -2.11361792        3.65584646
 C            2.69204571       -0.11474074        3.60929038
 C            2.60338464       -1.44191109        3.04415723
 C            2.61262507        1.01009355        2.70788137
 C            0.80135389        1.14214208        4.18548594
 C            1.46049622        1.81140616        3.07816850
 C           -0.54268051       -0.77964012        4.28159107
 C           -0.54385347        0.64209402        3.97311664
 C           -1.32559746       -1.62909190        3.51807594
 C            0.67703540       -2.93706128        2.85570238
 C           -0.71681454       -2.79598303        2.88865657
 C            1.28286078       -3.51508019        1.74322251
 C            2.81924142       -1.61404258        1.67920116
 C            2.38971847       -2.81129954        1.11413028
 C            2.83635036        0.80492415        1.35657507
 C            3.00074836       -0.49443296        0.85178579
 C            2.41769489        1.80338892        0.48744944
 C            0.66987968        2.32701643        2.05331779
 C            1.23978298        2.49393936        0.78515606
 C           -1.23903162        1.10434643        2.85920941
 C           -0.71451935        2.18851677        2.15335135
 C           -2.26660600       -1.06034709        2.56868754
 C           -2.20184571        0.29306329        2.24759630
 C           -1.52257730       -3.11772021        1.71645492
 C           -2.44366786       -2.01605715        1.49383393
 C            0.46559584       -4.09202854        0.69316787
 C           -0.93768772       -3.74145463        0.62693077
 C            2.22382273       -2.90997034       -0.32461293
 C            1.07393505       -3.75453283       -0.58281168
 C            3.03365207       -0.66673803       -0.53675947
 C            2.39452632       -1.77327470       -1.09956299
 C            2.87639771        1.74918303       -0.81573269
 C            3.26350744        0.45073637       -1.33541074
 C            2.15630384        2.45534647       -1.85456251
 C            0.45881202        3.03463208       -0.24439785
 C            0.90911871        3.00221506       -1.57019691
 C           -1.50780216        2.79429493        1.19423098
 C           -0.86410740        3.37368968        0.03098694
 C           -2.79794203        0.72790829        1.06019536
 C           -2.67304526        2.07353071        0.72292444
 C           -2.64710617       -1.52411059        0.21063556
 C           -3.10930494       -0.21421799        0.06955890
 C           -1.20674085       -3.23723696       -0.70888499
 C            0.03401028       -3.24867751       -1.45859725
 C           -2.06288055       -2.15918427       -0.89157144
 C            1.60171752       -1.61045016       -2.24072017
 C            0.31815483       -2.15600666       -2.27212907
 C            2.87427645        0.40411525       -2.73164199
 C            2.32808974        1.70254459       -3.08276588
 C            1.91991679       -0.60537846       -3.14108041
 C            1.16695611        1.48466055       -3.91971814
 C            0.84664550        0.06282820       -3.85773268
 C            0.01084506        3.20469123       -2.62409813
 C            0.12777189        2.39781066       -3.83434210
 C           -1.84521106        3.38842326       -1.03705282
 C           -2.94473770        2.51758974       -0.63214871
 C           -1.40452305        3.39527275       -2.35232969
 C           -3.50035158        0.20569248       -1.20006353
 C           -3.49328571        1.61838530       -1.53396535
 C           -1.98447408       -1.46258386       -2.09380038
 C           -0.74183189       -1.37311794       -2.74045477
 C           -0.47514834       -0.33238534       -3.64270823
 C           -2.96627454       -0.51466186       -2.33864725
 C           -1.20265339        1.94124112       -4.18226414
 C           -2.15452255        2.67280870       -3.36480124
 C           -3.18090200        1.73719435       -2.94742772
 C           -1.49678984        0.52594204       -4.04671839
 C           -2.79989754        0.41792971       -3.42886094
