   70
C70 / DATE: 7/ 1/2024 / Origin: Program Fullerene / C70 from database
 C            1.57094052        0.06457967        4.74411076
 C            0.75579337       -1.12130345        4.56779542
 C            1.40198953       -1.96977057        3.58459105
 C            2.66243102       -0.00120006        3.78626546
 C            2.54522169       -1.23754319        3.05521693
 C            2.65732189        1.22537542        3.03219759
 C            0.75111881        1.21244881        4.39597679
 C            1.49543751        1.99779671        3.44690622
 C           -0.59955758       -0.68800840        4.30772409
 C           -0.54940151        0.73220894        3.99175674
 C           -1.39458239       -1.50154813        3.52359773
 C            0.61129242       -2.69961069        2.69727677
 C           -0.78104182       -2.60162929        2.78299309
 C            1.19074006       -3.10847616        1.49889787
 C            2.75381036       -1.24138650        1.67979603
 C            2.35373624       -2.38584721        1.00827077
 C            2.95338099        1.19395336        1.67074539
 C            2.85457071       -0.02670265        0.97226627
 C            2.71593571        2.38273842        0.98877425
 C            0.81204645        2.67564357        2.45076090
 C            1.62928532        3.21746752        1.47329421
 C           -1.09218640        1.18509764        2.78564071
 C           -0.47301253        2.22934781        2.07798580
 C           -2.33477944       -0.87324726        2.62204581
 C           -2.08647832        0.42269564        2.16806911
 C           -1.60106623       -2.82463798        1.59669482
 C           -2.71592788       -1.89365657        1.66890272
 C            0.35269378       -3.41923012        0.35126669
 C           -0.98850612       -3.07201502        0.36892326
 C            2.30669319       -2.39282513       -0.43282152
 C            1.13649032       -3.15745182       -0.83745721
 C            2.72274393       -0.02532180       -0.43265613
 C            2.62158275       -1.23739958       -1.13288351
 C            2.64443277        2.38344345       -0.45299288
 C            2.52240915        1.17827023       -1.11968894
 C            1.02563386        3.87356860        0.34494014
 C            1.76907608        3.47381265       -0.83832995
 C           -1.03124576        2.65328790        0.85978881
 C           -0.36907229        3.61058309        0.08663871
 C           -2.61084475        0.81827633        0.93766311
 C           -2.09666546        1.94493370        0.29278420
 C           -3.32123139       -1.49117948        0.49625393
 C           -3.43802466       -0.06762331        0.24125729
 C           -1.60875345       -2.65715394       -0.81323624
 C           -2.88167189       -2.09010085       -0.74645732
 C            0.50201159       -2.79954336       -2.01822539
 C           -0.88690180       -2.59621384       -2.01471415
 C            2.30942833       -1.22600112       -2.49228575
 C            1.29285892       -2.15191973       -2.96411184
 C            1.92455143        1.16882408       -2.37730618
 C            2.06939892        0.03722367       -3.15952337
 C            0.80076076        3.24061096       -1.89338261
 C           -0.50652137        3.58097979       -1.35688716
 C            0.92033856        2.09785416       -2.67822480
 C           -2.51549641        2.25248394       -1.00522591
 C           -1.61847311        2.96365119       -1.89767163
 C           -3.62571513        0.08210051       -1.19114848
 C           -3.33168513       -1.20683447       -1.80579125
 C           -3.20600941        1.25158109       -1.80215117
 C           -1.52773477       -2.12500852       -3.16534055
 C           -2.68595730       -1.25917761       -3.03036303
 C            0.69322551       -1.58594294       -4.15278789
 C            1.12950301       -0.20106079       -4.23990734
 C           -0.74639106       -1.61008333       -4.27386017
 C           -0.17747350        1.70618526       -3.44789454
 C           -1.45272852        2.13648457       -3.08154062
 C           -2.56154990        1.19624869       -3.10635724
 C           -2.39789353       -0.02621308       -3.74773442
 C           -0.05298575        0.63190312       -4.32282320
 C           -1.19131893       -0.24879252       -4.52628707
