   70
C70 / DATE: 7/ 1/2024 / Origin: Program Fullerene / C70 from database
 C            1.53219810       -0.08778651        4.67004947
 C            0.72805234       -1.27282294        4.45477805
 C            1.34010448       -2.05243979        3.39186751
 C            2.63361965       -0.12804562        3.72565962
 C            2.47398320       -1.29424817        2.88975481
 C            2.68240071        1.15470204        3.07254025
 C            0.70811005        1.06197017        4.33194824
 C            1.44981235        1.86109611        3.39099903
 C           -0.64129651       -0.83775615        4.27213339
 C           -0.59056248        0.57540341        3.92816085
 C           -1.46989930       -1.65409148        3.52651213
 C            0.50172884       -2.68768939        2.47845054
 C           -0.86673719       -2.73359247        2.75816249
 C            0.93222327       -2.84510040        1.15822637
 C            2.61776228       -1.15272410        1.51536784
 C            2.02357337       -2.10330419        0.69234031
 C            3.11616338        1.22371921        1.75618736
 C            3.07527309        0.05874342        0.96385650
 C            2.88560596        2.44414853        1.14260437
 C            0.77812550        2.47452141        2.33895820
 C            1.59890014        3.07265248        1.39175645
 C           -1.13224087        0.99918198        2.71120276
 C           -0.46528798        1.95791925        1.92815593
 C           -2.42837537       -1.02959871        2.64129367
 C           -2.17067959        0.25210914        2.15128618
 C           -1.81088400       -3.07719260        1.70461622
 C           -2.85938602       -2.06563354        1.72283407
 C            0.10581019       -3.50780287        0.25141202
 C           -1.32504440       -3.54474570        0.49133972
 C            0.30645614       -3.33517031       -1.17665767
 C            2.36772418       -2.13068004       -0.65050551
 C            1.45021926       -2.69882537       -1.62215151
 C            3.24532357        0.15262400       -0.43151836
 C            2.97114481       -0.94946032       -1.23690492
 C            3.19507241        2.59544888       -0.25490358
 C            3.34731537        1.39771453       -1.04755254
 C            1.05407031        3.46082234        0.11296855
 C            2.13336020        3.38915253       -0.84758284
 C           -0.96553808        2.26293742        0.65168476
 C           -0.18567120        2.97711373       -0.26624095
 C           -2.72694713        0.63535291        0.93155515
 C           -2.18518720        1.71827234        0.23645854
 C           -3.46028280       -1.67463765        0.53931281
 C           -3.57620639       -0.25362710        0.27107487
 C           -1.99274641       -3.17280594       -0.74721884
 C           -0.97392197       -2.98132672       -1.76651283
 C           -3.08267350       -2.31581980       -0.71164047
 C           -1.05782790       -1.89438980       -2.63837481
 C            1.35587146       -1.77253087       -2.73418507
 C            2.37286468       -0.74789126       -2.55144437
 C            0.11260374       -1.40797094       -3.24120853
 C            2.65876465        1.62837998       -2.30876475
 C            1.84190485        2.82446226       -2.14638114
 C            2.13238425        0.54591361       -3.01617381
 C           -0.50105737        2.93336586       -1.62504009
 C            0.52327359        2.77239456       -2.57464301
 C           -2.69638353        2.05786670       -1.02011185
 C           -1.82737680        2.71747136       -1.97919271
 C           -3.78172439       -0.12148350       -1.15437160
 C           -3.23998522       -1.32765806       -1.76420176
 C           -2.27415149       -1.20364448       -2.76218205
 C           -3.51105563        1.09651981       -1.75092582
 C           -2.14826266        2.20611884       -3.29933042
 C           -2.37302678       -0.10666930       -3.61328123
 C           -3.04986393        1.08436385       -3.12657552
 C            0.06488750       -0.29061802       -4.06276820
 C            1.03961450        0.76990889       -3.85837188
 C            0.28993990        2.00449690       -3.70715942
 C           -1.21007799        0.32930834       -4.35219313
 C           -1.06588020        1.76360736       -4.14923783
