   70
C70 / DATE: 7/ 1/2024 / Origin: Program Fullerene / C70 from database
 C            1.53620011        0.10653868        4.85006804
 C            0.74512472       -1.08981262        4.62703640
 C            1.58233120       -2.03550488        3.92794406
 C            2.71741335        0.01381954        4.00772521
 C            2.78967486       -1.33726401        3.50600847
 C            2.66512813        1.10233066        3.05185406
 C            0.75740565        1.24003345        4.38744140
 C            1.55482905        1.96135483        3.41601274
 C           -0.50591516       -0.69081565        4.00863059
 C           -0.54275043        0.75962969        3.95998284
 C           -0.99517139       -1.39301188        2.91231122
 C            1.03918798       -2.69486007        2.75848835
 C           -0.28802832       -2.48890047        2.38838743
 C            2.92659146       -1.53904148        2.07627714
 C            2.03966175       -2.62207183        1.71579071
 C            2.88441676        0.86257246        1.69560267
 C            3.00952078       -0.45232642        1.21208068
 C            2.54002706        1.87850349        0.80176803
 C            0.88582718        2.60558290        2.38560975
 C            1.57029692        2.81098705        1.18869582
 C           -1.12116015        1.37407163        2.85230571
 C           -0.50781479        2.51865244        2.34599559
 C           -1.95770897       -0.76899108        2.12159441
 C           -1.94645350        0.62542234        2.00542330
 C           -2.62436354       -1.53574046        1.17974928
 C           -0.67657376       -2.99392096        1.14531455
 C           -1.97710957       -2.74589965        0.71799855
 C            1.58652226       -2.69901029        0.40815704
 C            0.32365645       -3.24095518        0.19695992
 C            2.82222942       -0.69576192       -0.14995972
 C            2.10518457       -1.82848349       -0.55653613
 C            2.84298077        1.70400992       -0.54442968
 C            3.01032274        0.35103827       -1.03698062
 C            2.13758310        2.46820655       -1.55949176
 C            0.99061537        3.65355755        0.24489042
 C            1.21004667        3.41714073       -1.17154177
 C           -1.18584607        3.25216749        1.38405210
 C           -0.40487381        4.00925396        0.42165785
 C           -2.50771604        1.24570435        0.87987191
 C           -2.26717283        2.60385205        0.66308260
 C           -3.23600391       -0.89121605        0.03566761
 C           -3.09792682        0.47945838       -0.13088643
 C           -2.33303083       -2.94402866       -0.67532205
 C           -3.07846868       -1.77170059       -1.11393755
 C           -0.01516913       -3.57739083       -1.10560775
 C           -1.40412219       -3.51841080       -1.52656062
 C            1.64176577       -1.94563709       -1.87551463
 C            0.78907941       -3.01374806       -2.17397948
 C            2.43137563        0.27989785       -2.36235703
 C            1.81686062        1.56658492       -2.65091639
 C            1.77765304       -0.87397589       -2.77329486
 C            0.55362613        1.59300323       -3.24130391
 C           -0.07959297        3.46017635       -1.84012563
 C           -1.06221470        3.91020178       -0.86814999
 C           -2.27428545        3.13202703       -0.69194638
 C           -0.43200236        2.45059345       -2.73495522
 C           -3.24026985        1.00692523       -1.41142033
 C           -2.67482972        2.30522309       -1.72677944
 C           -1.78129547        2.11413091       -2.85829287
 C           -2.84566523       -1.22403037       -2.37666929
 C           -3.02179289        0.14664190       -2.56521603
 C           -2.16320417        0.86997625       -3.49611775
 C           -1.42129001       -3.15120934       -2.92962410
 C           -0.04141232       -2.98620161       -3.36092786
 C           -2.15198482       -1.96389191       -3.33465342
 C            0.91100394       -0.74742673       -3.85879405
 C            0.19011868        0.50340928       -4.03272498
 C           -1.21329573        0.17479029       -4.22222182
 C            0.01646971       -1.82640347       -4.21797534
 C           -1.32421564       -1.26982626       -4.30522155
