   70
C70 / DATE: 7/ 1/2024 / Origin: Program Fullerene / C70 from database
 C            1.36534137       -0.12458882        4.42799416
 C            2.57201494       -0.45054836        3.70302935
 C            2.41142398       -1.78203317        3.13483604
 C            0.52247952       -1.30807162        4.42824525
 C            1.07845078       -2.24189295        3.46216163
 C           -0.85326710       -0.86918057        4.26205046
 C            0.55439225        0.98388550        3.96167096
 C           -0.83251759        0.57933801        4.11335004
 C            0.94151117        1.70031121        2.82465351
 C            2.98518763        0.42349022        2.62686774
 C            2.24557627        1.56578711        2.32490355
 C            2.79987098       -1.71434947        1.73801727
 C            3.42013305       -0.42195761        1.53022201
 C            1.93008459       -2.19363472        0.76642465
 C            0.25873468       -2.71929568        2.44507024
 C            0.77173887       -2.87515701        1.15173243
 C           -1.69621191       -1.62797541        3.45894559
 C           -1.12131619       -2.67837343        2.63428503
 C           -2.72781596       -0.97285199        2.66943548
 C           -1.79386376        1.20489620        3.33515511
 C           -2.79539472        0.41069981        2.63570590
 C           -0.03279610        2.38836115        2.08681960
 C           -1.37823357        2.26269808        2.43351397
 C            0.30636433        3.04655729        0.90175682
 C            2.60290510        2.24151570        1.16473502
 C            1.62673771        3.06436401        0.47980344
 C            3.41238851        0.12113606        0.25357345
 C            3.33951871        1.50730780        0.14917537
 C            2.05141362       -1.70891983       -0.53985302
 C            2.93384127       -0.65372732       -0.80407393
 C            1.23622984       -2.22562938       -1.55379299
 C           -0.03789519       -3.43049861        0.16797512
 C            0.25762428       -3.16044419       -1.22956979
 C           -2.00828852       -2.87846994        1.50453012
 C           -2.88467453       -1.72167009        1.43335846
 C           -1.48378650       -3.38412020        0.32784030
 C           -3.02592190       -1.05321992        0.21717466
 C           -3.08173662        1.07546062        1.37579172
 C           -2.38916105        2.35106800        1.39824427
 C           -3.12077679        0.34536307        0.18767966
 C           -0.68849553        3.39878603       -0.00795841
 C           -2.05342255        2.94410741        0.19499750
 C           -0.40969231        3.33381676       -1.43503411
 C            1.92414041        3.01953508       -0.94687333
 C            3.04731899        2.10985224       -1.13715903
 C            0.87854136        3.04586210       -1.87296964
 C            3.02167959       -0.13630442       -2.09215729
 C            3.08456161        1.30805709       -2.26645997
 C            1.21761856       -1.62977658       -2.81781567
 C            2.17644888       -0.67642406       -3.13934576
 C            0.07607392       -1.73071919       -3.61857148
 C           -1.00958968       -3.13526631       -1.93694016
 C           -2.03796234       -2.92760929       -0.93247567
 C           -2.80412109       -1.76151295       -0.96576517
 C           -1.09601045       -2.43874316       -3.13082682
 C           -3.00193088       -1.12680365       -2.18523994
 C           -2.24521992       -1.57649648       -3.34202153
 C           -3.00959257        1.02963154       -1.02659118
 C           -2.49229210        2.32275695       -1.04242836
 C           -1.54663619        2.69514311       -2.08215512
 C           -3.04868787        0.32185261       -2.22116979
 C           -0.38896579       -0.56388433       -4.35752669
 C           -1.79907746       -0.40308699       -4.07262783
 C           -1.33578784        1.82652734       -3.14904638
 C           -2.22835408        0.77172188       -3.33823415
 C            1.04738747        2.45857637       -3.12545306
 C            2.22986102        1.65651228       -3.38147198
 C            1.80425902        0.42229588       -4.01327969
 C           -0.08213602        1.79785191       -3.76570355
 C            0.40977834        0.56811123       -4.38113442
