   70
C70 / DATE: 7/ 1/2024 / Origin: Program Fullerene / C70 from database
 C            1.24103724       -0.03253986        4.21931174
 C            2.45211961       -0.24699547        3.44670318
 C            2.43815396       -1.64577726        3.04029643
 C            0.39907047       -1.20586323        4.03452124
 C            1.05118053       -2.06446621        3.07366909
 C           -0.93308280       -0.74877236        3.73741526
 C            0.43059669        1.14205240        3.95953599
 C           -0.94341580        0.70364915        3.79209871
 C            0.92640854        2.13129302        3.13159575
 C            2.88801199        0.72857324        2.54609086
 C            2.17552944        1.91990276        2.40989300
 C            3.75035153        0.35566947        1.51729787
 C            3.21405321       -2.03582500        1.96530620
 C            4.08550739       -1.04694878        1.36064632
 C            2.57185628       -2.75579784        0.87924851
 C            0.40351833       -2.36555027        1.87411557
 C            1.17588087       -2.74375158        0.77143538
 C           -1.64935128       -1.35852321        2.72021309
 C           -0.95004782       -2.03501128        1.70068980
 C           -2.86638002       -0.76384894        2.42748058
 C           -1.80740674        1.38344646        2.92985385
 C           -2.94144455        0.68676269        2.50448657
 C            0.01516438        2.83372413        2.24883129
 C           -1.32759101        2.46150007        2.16961400
 C            2.02932880        2.50483054        1.08596117
 C            0.73317380        3.14702651        1.02292405
 C            3.54865573        0.91521097        0.18608821
 C            2.50471873        1.80608949       -0.01679877
 C            4.15965506       -1.33364083       -0.05956792
 C            3.38462551       -2.53647536       -0.30516874
 C            3.80297539       -0.12596072       -0.78798735
 C            2.78035045       -2.66325119       -1.54123739
 C            0.58540247       -2.87061405       -0.48805644
 C            1.40561837       -3.11698365       -1.58675257
 C           -1.54137767       -2.22317904        0.44159840
 C           -0.73621609       -2.45121184       -0.67487639
 C           -3.60163332       -1.19489811        1.26649746
 C           -2.88549574       -1.92213598        0.24462076
 C           -3.71328721        1.15116084        1.36664839
 C           -4.19083772       -0.01633025        0.65121262
 C           -2.05962936        2.93056504        1.07853247
 C           -3.26353873        2.24268518        0.64598307
 C            0.03379807        3.15342874       -0.17354657
 C           -1.34137577        3.35479147       -0.11311074
 C            1.69827849        1.68847579       -1.15326763
 C            0.58871457        2.53066036       -1.29433370
 C            2.97109656       -0.25072775       -1.89417532
 C            2.83304538       -1.52504855       -2.44043937
 C            1.97398876        0.70916088       -2.12484366
 C            0.93392196       -2.79270838       -2.91465079
 C            1.82151907       -1.76230340       -3.44238823
 C           -1.24224063       -2.19256178       -1.96214058
 C           -0.41837922       -2.31006868       -3.07457903
 C           -3.29879179       -1.37993212       -1.03389591
 C           -3.96129307       -0.11009569       -0.77707704
 C           -2.42499253       -1.46610796       -2.10722414
 C           -3.25856703        2.20066290       -0.81258253
 C           -2.16623233        3.05326788       -1.26714493
 C           -3.55622709        1.01355926       -1.49288772
 C           -0.11043726        2.55354163       -2.49440310
 C           -1.54873865        2.78278577       -2.47724658
 C            1.14982343        0.58900093       -3.25421168
 C            0.98956049       -0.65742981       -3.85816784
 C           -0.34990371       -1.19742078       -4.00106828
 C            0.17267130        1.54818823       -3.49926685
 C           -2.51452850       -0.49827939       -3.10950755
 C           -3.04612561        0.81322968       -2.77274213
 C           -2.16159506        1.80794142       -3.35255305
 C           -1.40959580       -0.30712006       -4.03853605
 C           -1.09960296        1.11131981       -4.05398034
