   70
C70 / DATE: 7/ 1/2024 / Origin: Program Fullerene / C70 from database
 C            1.27277585        0.04539556        4.16434197
 C            2.60152043       -0.29509634        3.71370046
 C            2.59260160       -1.70064446        3.33913847
 C            0.44347457       -1.14263083        4.03514437
 C            1.20628318       -2.13393863        3.31069345
 C           -0.82827690       -0.72448630        3.49145293
 C            0.57163371        1.12975122        3.50705647
 C           -0.80709685        0.71858294        3.35946244
 C            1.16234453        1.81589569        2.45351283
 C            3.16845682        0.44261361        2.60407516
 C            2.44257785        1.46410707        1.98861218
 C            3.39193711       -1.84235825        2.13494778
 C            3.87388355       -0.51630746        1.77364996
 C            2.94218878       -2.70070160        1.13936695
 C            0.68793463       -2.66331526        2.13044424
 C            1.57143040       -3.19076326        1.19145753
 C           -1.40167308       -1.45028094        2.45883246
 C           -0.63094738       -2.38392556        1.74878902
 C           -2.50205424       -0.87949474        1.82763817
 C           -1.56448170        1.27718850        2.33630285
 C           -2.60143078        0.51619093        1.80202850
 C            0.34187611        2.61305481        1.65897927
 C           -1.03113048        2.32168022        1.57096029
 C            0.95080390        3.42371049        0.71421051
 C            2.87834306        1.92725400        0.74230231
 C            2.19092294        2.96744945        0.12479053
 C            4.09084735       -0.20288642        0.43871075
 C            3.64646143        1.08723627       -0.06433154
 C            3.25520490       -2.41589579       -0.25069842
 C            3.82613534       -1.19487853       -0.59338493
 C            1.12392850       -3.40904148       -0.17323199
 C            2.18450474       -2.96708122       -1.06502426
 C           -1.10733899       -2.86572521        0.52465253
 C           -0.20185227       -3.15044646       -0.50412277
 C           -3.18599773       -1.64750560        0.89492238
 C           -2.45698869       -2.70802369        0.22634163
 C           -4.06215012       -1.01274475       -0.07451397
 C           -3.49761674        1.14153862        0.94765520
 C           -4.23340592        0.36292014       -0.03505217
 C           -1.83059275        2.91229372        0.57778963
 C           -3.10457365        2.39761853        0.33266731
 C            0.16077308        4.01404623       -0.34212994
 C           -1.24564629        3.69121389       -0.41943390
 C            1.97034559        2.89128476       -1.31092507
 C            0.76368104        3.62747382       -1.61028541
 C            3.26794831        0.91930456       -1.45806326
 C            3.37411212       -0.49093764       -1.78508631
 C            2.21381601        1.68279579       -1.95232152
 C            1.84544471       -2.35626558       -2.26399720
 C            2.42143959       -1.06598857       -2.61111773
 C           -0.52649880       -2.85542063       -1.83547911
 C            0.45478403       -2.33896597       -2.67525520
 C           -2.86923197       -2.72181275       -1.16056274
 C           -3.83919956       -1.65778602       -1.35785809
 C           -1.84694066       -2.59016075       -2.17465970
 C           -3.40488999       -0.85504051       -2.49109312
 C           -2.12924109       -1.38515677       -2.94109123
 C           -4.22594401        1.10608862       -1.28372603
 C           -3.59826694        2.39065256       -1.03472715
 C           -3.59058081        0.51871819       -2.45241357
 C           -1.52580083        3.38201472       -1.81336075
 C           -0.26243312        2.97568570       -2.39284886
 C           -2.65445575        2.63877623       -2.10808120
 C           -2.49087799        1.38854301       -2.83444700
 C            1.18497307        1.06197215       -2.67866714
 C            1.36043961       -0.23277258       -3.15271887
 C            0.19712217       -1.07523514       -3.34644864
 C           -1.07523999       -0.52298821       -3.24648031
 C           -0.08615603        1.64469987       -2.76136182
 C           -1.21393850        0.84895201       -3.00962962
