   70
C70 / DATE: 7/ 1/2024 / Origin: Program Fullerene / C70 from database
 C            1.24232222       -0.11763831        4.22529199
 C            2.53153055       -0.42461350        3.65308043
 C            2.46318975       -1.77258639        3.10552173
 C            0.41075838       -1.30199807        4.08507837
 C            1.07775045       -2.19288773        3.16566530
 C           -0.91940213       -0.85511146        3.74770903
 C            0.48992418        0.99828826        3.68642463
 C           -0.90058778        0.59813130        3.69161459
 C            0.96923502        1.69820281        2.58665379
 C            3.04577207        0.43132799        2.60525223
 C            2.26940304        1.47690067        2.10289135
 C            3.12502948       -1.74976011        1.81183775
 C            3.72940043       -0.43695347        1.66881778
 C            2.48600437       -2.31588395        0.71122009
 C            0.43934700       -2.53703246        1.97977165
 C            1.21850046       -2.89088348        0.88058540
 C           -1.63508873       -1.52639321        2.76286893
 C           -0.92912514       -2.27260770        1.80270996
 C           -2.84756141       -0.94482968        2.40753851
 C           -1.79555053        1.20903352        2.81961962
 C           -2.96241234        0.49605724        2.56898228
 C            0.05795669        2.42591801        1.82208535
 C           -1.29852805        2.06645798        1.82218179
 C            0.54061920        3.28211390        0.83842512
 C            2.66291087        2.07082875        0.90240783
 C            1.91156866        3.12263863        0.39037659
 C            3.97348734        0.04360609        0.39384222
 C            3.55529981        1.39651171        0.06410261
 C            2.93369219       -1.97428527       -0.57023496
 C            3.65277741       -0.79531718       -0.75034552
 C            2.32066729       -2.53598663       -1.68413288
 C            0.59863050       -3.51810996       -0.18810463
 C            1.23468871       -3.47261096       -1.48710174
 C           -1.52542730       -2.56181862        0.56575869
 C           -0.82518202       -3.30849727       -0.37541551
 C           -3.45264311       -1.27234152        1.13463747
 C           -2.65551707       -1.85422331        0.15733908
 C           -3.88791456        0.98037592        1.57314017
 C           -4.32954890       -0.16790860        0.79839264
 C           -2.08952152        2.38443869        0.70541126
 C           -3.41684638        1.97655162        0.64059689
 C           -0.28175362        3.54744193       -0.32757040
 C           -1.48209551        2.86659376       -0.45177207
 C            1.94834089        3.39211212       -1.03688778
 C            0.58857456        3.64124450       -1.47984848
 C            3.37606002        1.44788017       -1.37934651
 C            3.29816769        0.07917166       -1.85809551
 C            2.53589812        2.40331355       -1.92186950
 C            1.96861571       -1.66854582       -2.79955286
 C            2.27384711       -0.30857785       -2.72063069
 C            0.21179494       -3.19231078       -2.47823401
 C           -1.05551200       -3.04343551       -1.78337977
 C            0.68329101       -2.10556075       -3.31657097
 C           -2.82502763       -1.52822838       -1.19854223
 C           -1.90476232       -2.00063095       -2.13590207
 C           -4.41979789        0.24996614       -0.58035473
 C           -3.96972031        1.63326875       -0.65407810
 C           -3.67678603       -0.48966250       -1.57826971
 C           -1.87648220        2.37235563       -1.70319635
 C           -3.11694933        1.75055286       -1.82507726
 C           -3.19697180        0.48620179       -2.53513864
 C            0.31934075        2.78016195       -2.61184972
 C            1.51551539        1.99079661       -2.87002390
 C            1.37580355        0.64613967       -3.21824732
 C           -0.92141757        2.16043356       -2.70430378
 C           -0.22852719       -1.15675744       -3.74246420
 C           -1.59706288       -1.21538275       -3.25057062
 C           -2.14842956        0.12519433       -3.36356491
 C            0.16364112        0.24100921       -3.77508391
 C           -1.02720412        1.03815029       -3.52207187
