   70
C70 / DATE: 7/ 1/2024 / Origin: Program Fullerene / C70 from database
 C            1.14298358       -0.06792954        4.57355237
 C            2.32215357       -0.37503049        3.79833167
 C            2.17633657       -1.73466607        3.30348086
 C            0.30492715       -1.25766884        4.57823696
 C            0.80757018       -2.13700163        3.54019746
 C           -1.06863486       -0.81554227        4.50407159
 C            0.30758972        1.03914072        4.15440354
 C           -1.05831644        0.63618950        4.40296401
 C            0.58535477        1.71169939        2.96570555
 C            2.64168969        0.45946818        2.65690909
 C            1.79993371        1.50582300        2.29113815
 C            2.66323860       -1.74958937        1.94253865
 C            3.12947790       -0.41784476        1.61328045
 C            1.94107453       -2.42104890        0.97331915
 C            0.00367471       -2.44651698        2.44086531
 C            0.61231765       -2.79562539        1.22457071
 C           -1.89763798       -1.31284554        3.42611089
 C           -1.37672944       -2.20063222        2.48906165
 C           -2.06596543        1.01499721        3.43194221
 C           -2.70658402       -0.20229584        2.95564836
 C           -0.44570130        2.41426288        2.33199103
 C           -1.77677653        2.00824833        2.50472366
 C           -0.11710449        3.28906387        1.30048990
 C            1.97301778        2.06112708        1.02363169
 C            1.17387188        3.13939095        0.65842297
 C            3.01190286        0.00407281        0.29203465
 C            2.65537004        1.32890461        0.04286730
 C            2.33189817       -2.22234898       -0.33990763
 C            2.80216070       -0.95343470       -0.70856683
 C            1.78305210       -3.06432292       -1.28678087
 C           -0.17379979       -3.27182980        0.16586382
 C            0.42053130       -3.50709488       -1.07496903
 C           -2.14805040       -2.44023902        1.36102378
 C           -1.54305018       -3.03431299        0.18708565
 C           -3.20535197       -0.23461875        1.65230414
 C           -3.08180144       -1.41437260        0.91602482
 C           -2.67576217        2.15393711        1.45533616
 C           -3.37951901        0.97393247        0.97727290
 C           -1.09401100        3.59282032        0.26750782
 C           -2.33461938        2.97472349        0.30856877
 C            1.02645065        3.49909614       -0.74112776
 C           -0.38860278        3.71541965       -0.99857624
 C            2.69465720        1.78692215       -1.26879305
 C            1.81252059        2.86169624       -1.68915466
 C            2.77713768       -0.54494453       -2.04966925
 C            2.76430108        0.81733385       -2.34869992
 C            1.94675587       -2.75912281       -2.69045036
 C            2.45256489       -1.45433006       -3.05486509
 C           -0.31817129       -3.14668005       -2.27341721
 C            0.64979289       -2.92404293       -3.32794465
 C           -2.17649052       -2.44980856       -0.98662246
 C           -3.01958679       -1.36100777       -0.53800697
 C           -1.42215211       -2.30750723       -2.14362041
 C           -3.34199394        1.00377579       -0.47611602
 C           -2.85674201        2.31371154       -0.87761096
 C           -2.94043681       -0.13212921       -1.17374497
 C           -0.96582558        3.21934516       -2.16313646
 C           -2.19361791        2.44120060       -2.08809561
 C            1.24286301        2.49511221       -2.97645273
 C            1.93751063        1.30735035       -3.44388170
 C           -0.12617374        2.61848029       -3.18884335
 C            1.66484882       -1.00143157       -4.18819329
 C            0.45343715       -1.80562403       -4.22145577
 C            1.26616084        0.39343875       -4.24626904
 C           -1.46895936       -1.09662260       -2.85170074
 C           -2.18346259       -0.00398159       -2.34101972
 C           -2.00982365        1.25899132       -2.90824971
 C           -0.86984336        1.50980179       -3.77004535
 C           -0.65888929       -0.91029083       -3.97593294
 C           -0.18894090        0.42485850       -4.29955694
