   70
C70 / DATE: 7/ 1/2024 / Origin: Program Fullerene / C70 from database
 C            1.34729428        0.15461125        5.03428503
 C            0.55497279       -1.06030996        5.01250207
 C            1.36248615       -2.10664871        4.41308163
 C            2.56645778       -0.10059268        4.28554094
 C            2.58610041       -1.49811896        3.91843945
 C            2.64001203        0.88020018        3.22453365
 C            0.60219086        1.18214188        4.32502511
 C            1.46336143        1.72165403        3.29681236
 C           -0.72783608       -0.74364633        4.40972283
 C           -0.66797363        0.62353807        3.91496834
 C           -1.35037371       -1.69957398        3.62162348
 C            0.78879513       -2.88976675        3.33307158
 C           -0.58063849       -2.83484986        3.11644345
 C            2.71392463       -1.83862279        2.51292155
 C            1.67675572       -2.79730392        2.18330977
 C            3.05694672        0.49795038        1.95570238
 C            3.01329824       -0.85449879        1.57882251
 C            2.89913871        1.44029333        0.94706180
 C            0.89982740        2.11127350        2.08777926
 C            1.75756205        2.25482095        0.99901089
 C           -1.13291142        0.90192769        2.62924748
 C           -0.44509659        1.82295111        1.82928941
 C           -2.20362331       -1.25070272        2.53743813
 C           -2.06163279        0.04158989        2.03920787
 C           -1.07874825       -3.13009602        1.78657835
 C           -2.28478482       -2.34509788        1.59478497
 C            1.12771642       -2.78405714        0.89811305
 C           -0.18419250       -3.23613046        0.72393965
 C            2.79989465       -1.15952746        0.23394092
 C            1.73142023       -2.00179732       -0.10035315
 C            3.43594376        1.11242894       -0.28672377
 C            3.28608599       -0.26332101       -0.71167680
 C            3.15453974        1.96379142       -1.41771669
 C            1.23591858        2.80034944       -0.17433591
 C            2.04701787        2.88377016       -1.30293945
 C           -0.95401026        2.13835546        0.56990495
 C           -0.15236467        2.85476554       -0.31924178
 C           -2.50224476        0.29621908        0.74130320
 C           -2.07015384        1.45109206        0.08684073
 C           -2.66942125       -2.05930938        0.29516974
 C           -3.05332488       -0.75242611       -0.00180640
 C           -0.72499616       -3.26261626       -0.55539492
 C           -2.09810159       -2.81993926       -0.71884374
 C            1.13713552       -1.91268268       -1.36636872
 C            0.03093238       -2.69185890       -1.65245072
 C            2.70051652       -0.23926990       -2.03835577
 C            2.87630413        1.09909504       -2.55168933
 C            1.49136574       -0.88829653       -2.24268206
 C            1.43310513        2.94024857       -2.61244796
 C            1.78459871        1.69570209       -3.28312489
 C           -0.70869182        3.30971406       -1.51144923
 C            0.12196020        3.37630336       -2.70719074
 C           -2.58895141        1.76688971       -1.17142675
 C           -2.01551203        2.80832779       -1.90401041
 C           -3.54739304       -0.48816316       -1.27342202
 C           -3.44953458        0.86208381       -1.79590827
 C           -2.25622912       -2.38365162       -2.09088685
 C           -0.91789794       -2.23069772       -2.65017455
 C           -3.19688031       -1.40071780       -2.35472165
 C            0.54954732       -0.37531382       -3.15630312
 C            0.75353531        0.88776349       -3.74896986
 C           -0.62805616       -1.09944787       -3.41407460
 C           -0.66990460        2.86049976       -3.80798097
 C           -2.04388530        2.77898584       -3.35732914
 C           -0.31623478        1.55529541       -4.33617578
 C           -3.45726264        0.74194114       -3.24380286
 C           -3.02031973       -0.60637861       -3.55199833
 C           -1.68327582       -0.50151415       -4.10462064
 C           -2.63627309        1.63979246       -4.02571249
 C           -1.54793119        0.85057964       -4.59410621
