   70
C70 / DATE: 7/ 1/2024 / Origin: Program Fullerene / C70 from database
 C            1.30903137       -0.01051396        4.27185190
 C            2.56733572       -0.38909282        3.67107834
 C            2.50469252       -1.80852705        3.36154594
 C            0.48320805       -1.20266744        4.36161176
 C            1.14480460       -2.25407527        3.60942375
 C           -0.87159330       -0.83330212        3.99633605
 C            0.51745288        1.01898654        3.63041744
 C           -0.85726413        0.55979548        3.58021789
 C            1.01652903        1.70919643        2.52965832
 C            2.99581486        0.29853107        2.47047776
 C            2.25468240        1.36180163        1.96308850
 C            3.07614851       -2.00042948        2.04217671
 C            3.48483961       -0.69827048        1.53853541
 C            2.46269228       -2.88824499        1.17440115
 C            0.44114840       -2.91211856        2.60060448
 C            1.11701167       -3.36418458        1.46546578
 C           -1.62457433       -1.73416498        3.26513119
 C           -0.95096027       -2.82771789        2.57433135
 C           -2.64530004       -1.22459213        2.36987964
 C           -1.64600343        0.97199186        2.50723850
 C           -2.61623725        0.11240238        1.97449331
 C            0.11323070        2.45319782        1.77164047
 C           -1.23744703        2.08437129        1.77163129
 C            0.61590175        3.26956912        0.76474108
 C            2.54729355        1.79099620        0.66882138
 C            1.89817020        2.92352354        0.18718789
 C            3.38474790       -0.42552853        0.17629366
 C            3.15208667        0.89643999       -0.22236242
 C            2.54354529       -2.63953362       -0.25190510
 C            3.13822075       -1.47404137       -0.72071627
 C            0.40408854       -3.48458892        0.20023155
 C            1.29692218       -3.07104554       -0.86260311
 C           -1.65854474       -3.04859067        1.32243497
 C           -2.86986904       -2.24811464        1.36846113
 C           -0.93361578       -3.13157355        0.13645310
 C           -3.46306465       -1.87637507        0.17635041
 C           -3.32166724        0.48810149        0.82515376
 C           -3.89718989       -0.50017117        0.02416964
 C           -2.11228766        2.62028922        0.83495011
 C           -3.18272480        1.78323021        0.32699073
 C           -0.25123131        3.73325323       -0.30398601
 C           -1.60168841        3.41939134       -0.26526195
 C            1.83368202        3.18037885       -1.24150145
 C            0.48554374        3.63043781       -1.55433086
 C            3.27385413        1.22837859       -1.56827884
 C            2.50364718        2.33378153       -2.11287494
 C            2.95365376       -1.18010315       -2.06647439
 C            3.24713053        0.15689656       -2.53944612
 C            0.80055019       -2.34668239       -1.94311327
 C            1.71795111       -1.62056059       -2.70059295
 C           -1.43752710       -2.53915313       -1.02273078
 C           -2.79433051       -2.22949101       -1.06201332
 C           -0.55623888       -1.99431637       -1.97339360
 C           -4.03849936       -0.27666637       -1.40329766
 C           -3.29648487       -1.33287204       -2.07917280
 C           -3.30812047        2.03774217       -1.10323568
 C           -2.28637949        3.00211758       -1.47845278
 C           -3.61497813        0.99171313       -1.96410085
 C           -0.15192022        3.16721804       -2.69994487
 C           -1.56644748        2.82384501       -2.65541662
 C            1.84302526        1.86701657       -3.32416529
 C            2.26280126        0.49578506       -3.55124978
 C            1.25421186       -0.55103835       -3.56045772
 C            0.51247886        2.19461520       -3.55269774
 C           -1.00311691       -1.02939808       -2.89278347
 C           -2.35319041       -0.70161675       -2.97160697
 C           -2.72974346        0.69648323       -3.07954340
 C           -1.75624877        1.61525102       -3.44543341
 C           -0.08505246       -0.19336151       -3.52748488
 C           -0.43858750        1.12599540       -3.81284704
