   70
C70 / DATE: 7/ 1/2024 / Origin: Program Fullerene / C70 from database
 C            1.38815524        0.11833397        4.87808440
 C            0.60738821       -1.09229682        4.70098317
 C            1.44761339       -2.06798049        4.04654528
 C            2.61890277       -0.03729559        4.11969804
 C            2.70479755       -1.41740316        3.70693242
 C            2.64439847        0.99010602        3.09460364
 C            0.63952579        1.21379211        4.28674679
 C            1.47964649        1.83459387        3.29330583
 C           -0.63740664       -0.72401388        4.05926195
 C           -0.64644307        0.71127368        3.85421454
 C           -1.14897909       -1.51075459        3.03848640
 C            0.94844029       -2.71234674        2.84471749
 C           -0.34716767       -2.47701216        2.41095578
 C            2.97049173       -1.69408843        2.31220283
 C            2.00452172       -2.68171624        1.85743007
 C            3.00985704        0.66998663        1.78065907
 C            3.31240784       -0.66083578        1.44255277
 C            2.65985047        1.57975849        0.76955266
 C            0.88320946        2.35424405        2.16041123
 C            1.70131785        2.55825579        1.06575055
 C           -1.18684933        1.19255034        2.66026409
 C           -0.48631456        2.16062260        1.93049006
 C           -2.18754700       -0.96695816        2.29819275
 C           -2.12712481        0.40180789        1.99586159
 C           -2.83331753       -1.82762176        1.42797036
 C           -0.66648542       -2.85209415        1.10674071
 C           -2.00502970       -2.80191270        0.74682176
 C            1.67278946       -2.69430435        0.50215795
 C            0.32296795       -2.76669243        0.11577662
 C            3.40057217       -1.00932847        0.10240892
 C            2.59455896       -2.12652359       -0.36677127
 C            3.00492349        1.30987450       -0.56152876
 C            3.36031978        0.01926474       -0.91506685
 C            2.60427721        2.17330744       -1.57640456
 C            1.21219157        3.38486474        0.07303421
 C            1.80999809        3.33310505       -1.23866943
 C           -1.02305694        2.62521961        0.72272252
 C           -0.22860529        3.44970702       -0.08298272
 C           -2.70674995        0.88517829        0.81853805
 C           -2.13881444        1.98585430        0.16962568
 C           -3.77134216       -1.28505633        0.47546063
 C           -3.67856791        0.12338837        0.16827469
 C           -2.37207909       -2.78933077       -0.65063477
 C           -3.60080145       -2.01899661       -0.76474276
 C           -0.04037311       -2.53068117       -1.22661580
 C           -1.38824275       -2.62500576       -1.61683478
 C            2.21672733       -1.85734553       -1.73215514
 C            2.78294201       -0.57138059       -2.11209709
 C            0.94251542       -2.17703861       -2.16810819
 C            2.07613561        1.61704966       -2.81575056
 C            2.08461049        0.23510753       -3.01050203
 C            0.74541068        3.46000573       -2.21778756
 C           -0.51021008        3.58724378       -1.50292255
 C            0.89454736        2.38670234       -3.18202960
 C           -2.55560325        2.31650357       -1.12135103
 C           -1.63344578        2.97362553       -2.02646271
 C           -3.86008146        0.25600617       -1.26672889
 C           -3.72667700       -1.07083129       -1.85593983
 C           -3.30793311        1.35414371       -1.90720303
 C           -1.79171779       -2.16893892       -2.87138239
 C           -2.91366718       -1.24637755       -2.96688157
 C            0.57129993       -1.65600317       -3.40034934
 C            1.07891517       -0.34748248       -3.78230155
 C           -0.80182124       -1.74593301       -3.83132019
 C           -0.23523166        1.71615506       -3.63774568
 C           -1.50172025        2.12377562       -3.20325236
 C           -2.61520550        1.18369421       -3.17759509
 C           -2.46020966       -0.08700835       -3.71647660
 C           -0.06299152        0.45349317       -4.19356715
 C           -1.19841363       -0.44000594       -4.33727366
