   70
C70 / DATE: 7/ 1/2024 / Origin: Program Fullerene / C70 from database
 C            1.23055741       -0.09669458        4.36812063
 C            2.46403590       -0.35291204        3.66133662
 C            2.36706084       -1.67248246        3.05709991
 C            0.38422336       -1.27246792        4.22234909
 C            1.00921743       -2.14407374        3.25304824
 C           -0.96080812       -0.80487844        3.96389341
 C            0.43352192        1.05128913        3.98051805
 C           -0.94699567        0.64067992        4.13617760
 C            0.79549170        1.80199402        2.85921872
 C            2.86526440        0.56548305        2.61806144
 C            2.08916432        1.68738633        2.32758683
 C            2.87600263       -1.57675995        1.69579560
 C            3.37648104       -0.22910371        1.51434115
 C            2.14689820       -2.15856803        0.66518053
 C            0.29081805       -2.54288580        2.13405965
 C            1.00361581       -2.88701228        0.98924994
 C           -1.68877201       -1.35294910        2.90886963
 C           -1.07415650       -2.24559106        2.01905397
 C           -2.85586334       -0.70257330        2.51773908
 C           -1.93225054        1.38877543        3.51605262
 C           -3.04870619        0.68093672        2.91659088
 C           -0.19759721        2.50797442        2.16363827
 C           -1.52891587        2.42719841        2.58180274
 C            0.10142129        3.15044853        0.95921892
 C            2.41874297        2.39164621        1.17646924
 C            1.41147411        3.18967890        0.50715351
 C            3.35331759        0.32837856        0.24357169
 C            3.18852171        1.70788798        0.14966566
 C            2.29376198       -1.66325324       -0.63395206
 C            2.99807237       -0.47188936       -0.84553862
 C            1.58715406       -2.27049291       -1.68025061
 C            0.33652646       -3.56099102       -0.01743834
 C            0.77530343       -3.36677917       -1.38561671
 C           -1.73657915       -2.60361568        0.84043944
 C           -1.11375572       -3.50953620       -0.01663884
 C           -3.32003195       -0.83226057        1.14919149
 C           -2.69439866       -1.73700545        0.31150481
 C           -3.47638271        1.42908540        1.74767714
 C           -2.59512819        2.57106827        1.60374219
 C           -3.59746781        0.49876755        0.63839591
 C           -0.91911716        3.44857291        0.06151070
 C           -2.26942082        2.98853779        0.32487839
 C           -0.68255215        3.29165241       -1.36366172
 C            1.67896627        3.14280442       -0.92596603
 C            2.85539446        2.30473951       -1.12891844
 C            0.61431304        3.09526818       -1.83064463
 C            3.04608226        0.07998921       -2.12064050
 C            2.94776564        1.52509288       -2.27033338
 C            1.51121199       -1.65568691       -2.93823317
 C            2.29294007       -0.53536385       -3.19722629
 C            0.39638318       -1.86443419       -3.75435308
 C           -0.35980889       -3.67690127       -2.23100465
 C           -1.54989144       -3.58486507       -1.40150194
 C           -0.58527351       -2.87002668       -3.40735939
 C           -2.69088892       -1.47113375       -1.05388753
 C           -2.35735697       -2.50038546       -1.92124420
 C           -1.85811847       -2.18057061       -3.24026608
 C           -3.09595132        0.86105763       -0.61185170
 C           -2.67264536        2.17263027       -0.81301581
 C           -1.75748005        2.46737713       -1.89797417
 C           -2.66886734       -0.14071028       -1.48938471
 C           -0.34973778       -0.71292113       -4.22856816
 C           -1.64799024       -0.78751112       -3.58587770
 C           -1.44675901        1.47833962       -2.82035077
 C           -2.00525049        0.20522977       -2.67683947
 C            0.78360263        2.47004793       -3.06522425
 C            2.03489454        1.79605620       -3.35937225
 C            1.72421317        0.53341253       -4.00320011
 C           -0.29579607        1.64612129       -3.58941140
 C            0.29829942        0.50967783       -4.27745700
