   70
C70 / DATE: 7/ 1/2024 / Origin: Program Fullerene / C70 from database
 C            1.15002932        0.02099713        4.61850614
 C            2.39731203       -0.30983299        3.97758621
 C            2.28959251       -1.68702822        3.51414236
 C            0.33583549       -1.18395164        4.59773110
 C            0.88677482       -2.02676829        3.55823333
 C           -1.03463418       -0.75669517        4.47449783
 C            0.33780422        1.06833068        4.03729179
 C           -1.02193173        0.69486921        4.34858954
 C            0.62503578        1.53369536        2.75079018
 C            2.80612403        0.46608439        2.82704457
 C            1.87778846        1.28028477        2.16946978
 C            2.96380208       -1.74546738        2.23749546
 C            3.59272904       -0.45473670        2.03746769
 C            2.31201866       -2.31441154        1.15099009
 C            0.19757537       -2.17752503        2.35141820
 C            0.91411841       -2.45535791        1.18097872
 C           -1.80940283       -1.24618816        3.35510327
 C           -1.16267590       -1.83996101        2.26592023
 C           -2.05530640        1.03441001        3.39746561
 C           -2.76516473       -0.19298470        3.09553302
 C           -0.40713589        2.05847939        1.96353765
 C           -1.75006967        1.87456741        2.33445744
 C           -0.10964359        2.53067061        0.68403836
 C            2.08520966        1.56419241        0.81321986
 C            1.03979451        2.07445755        0.04109075
 C            3.89244006       -0.09580331        0.73878112
 C            3.22744112        1.07229405        0.18492324
 C            2.94468527       -2.20291071       -0.08366542
 C            3.80730798       -1.12189793       -0.28463608
 C            2.35111052       -2.80921655       -1.18211500
 C            0.21704720       -2.61471269       -0.01788289
 C            0.91266006       -3.00015030       -1.15728796
 C           -1.79053987       -1.79472194        1.01421950
 C           -1.05615543       -2.06150854       -0.14289718
 C           -3.46586477       -0.23808550        1.90715343
 C           -3.05102639       -1.21032161        0.90910648
 C           -2.73762844        2.04083243        1.36793603
 C           -3.66163312        1.00786219        1.18826594
 C           -1.10814156        3.15313570       -0.05506208
 C           -2.48995606        2.91786657        0.32102714
 C           -1.02993179        3.13855731       -1.50439315
 C            1.07649853        1.98367480       -1.36146032
 C           -0.02880285        2.38840930       -2.12002370
 C            3.23636076        0.91450969       -1.25741398
 C            3.77926052       -0.40897265       -1.54620627
 C            2.16674597        1.39186354       -2.00525202
 C            2.72470668       -2.37894149       -2.51813072
 C            3.35839056       -1.08149291       -2.68264200
 C            0.39039995       -2.63799467       -2.46227086
 C            1.52733216       -2.40347085       -3.33835839
 C           -1.52160783       -1.63533583       -1.39926699
 C           -0.72202142       -1.80078946       -2.53688695
 C           -3.49974442       -0.70838317       -0.37620184
 C           -4.05323990        0.62339147       -0.15316618
 C           -2.73355580       -0.94820080       -1.51050308
 C           -3.27518664        2.80976085       -0.89609628
 C           -2.39043496        3.07899266       -2.01494765
 C           -3.97881907        1.56706106       -1.16551915
 C           -2.96901463       -0.17757003       -2.64256438
 C           -2.69506699        2.11848612       -3.05086070
 C           -3.59966806        1.12522011       -2.49287087
 C           -0.28685557        1.77244575       -3.35350514
 C           -0.83451397       -0.89480304       -3.60178858
 C           -1.59394809        1.40102239       -3.65100571
 C           -1.90892672       -0.01652177       -3.61303760
 C            2.01000679        0.92817619       -3.30575854
 C            2.60463298       -0.34643927       -3.67883184
 C            1.53369519       -1.20951797       -4.15255987
 C            0.69617396        0.96569264       -3.90907636
 C            0.32980863       -0.41162199       -4.18986631
