   70
C70 / DATE: 7/ 1/2024 / Origin: Program Fullerene / C70 from database
 C            1.56730215        0.04402279        5.00583384
 C            0.77388301       -1.17170503        5.03499199
 C            1.63035206       -2.24382566        4.58113507
 C            2.70914063       -0.20807625        4.14351370
 C            2.79147260       -1.63504986        3.93993915
 C            2.57686036        0.64787183        2.98207301
 C            0.76368034        1.07626582        4.37611746
 C            1.49252491        1.58033248        3.23367898
 C           -0.46450966       -0.90724801        4.31746094
 C           -0.55123622        0.53142866        4.12658349
 C           -0.87837644       -1.75047222        3.27689947
 C            1.08108348       -3.20824127        3.65282069
 C           -0.22209214       -2.95769687        3.05249337
 C            2.85029855       -2.14092408        2.58147961
 C            2.02908635       -3.32747014        2.56084204
 C            2.69732673        0.11972798        1.69791269
 C            2.76201908       -1.26664849        1.49400949
 C            2.27601166        0.92049742        0.64308948
 C            0.75585312        2.01502655        2.13791741
 C            1.34960442        1.93377194        0.88831637
 C           -1.23158762        0.98366736        3.00910757
 C           -0.63712320        1.95432778        2.19442366
 C           -1.71200588       -1.22779116        2.28120995
 C           -2.11547835        0.10129991        2.41135384
 C           -1.79781757       -1.85045103        1.02180703
 C           -0.14852328       -3.46934257        1.70059242
 C            1.26395490       -3.57777242        1.36499949
 C           -1.00181836       -2.96190903        0.72326286
 C            2.39273903       -1.78461154        0.24134763
 C            1.67170037       -2.98972144        0.17882271
 C            2.41719913        0.45066378       -0.65443371
 C            2.39501835       -0.93116245       -0.87154074
 C            2.12281059        1.31710277       -1.70512496
 C            0.68378044        2.49344444       -0.19050064
 C            1.26757490        2.39662090       -1.44650257
 C           -1.36865855        2.39754728        1.08617648
 C           -0.68440139        2.76725805       -0.08372537
 C           -2.99617172        0.63420791        1.49054195
 C           -2.68652445        1.95617978        0.98665069
 C           -2.51685795       -1.22023420       -0.00373775
 C           -3.35071144       -0.16367680        0.33844743
 C           -2.13423669       -1.39749871       -1.34167799
 C           -0.61397274       -3.16283412       -0.59876962
 C            0.81001946       -3.18297328       -0.88656440
 C           -1.26407140       -2.42295919       -1.66341042
 C            1.95930974       -1.42288911       -2.10797525
 C            1.02593913       -2.44811498       -2.10724885
 C           -0.27700609       -2.20063429       -2.70256038
 C            2.25805600        0.82258674       -2.99562259
 C            1.95601854       -0.57383241       -3.20843110
 C            1.70368994        1.55349008       -4.12025670
 C            0.70657592        3.13308969       -2.48164863
 C            1.00515698        2.79045335       -3.85879715
 C           -1.40246371        3.14449309       -1.23080439
 C           -0.70249781        3.47268945       -2.39337477
 C           -3.39893742        2.09930626       -0.26136620
 C           -3.79539699        0.76138137       -0.68507787
 C           -2.72236279        2.71699654       -1.37922938
 C           -2.37023129       -0.40011126       -2.29459744
 C           -3.31294294        0.58905285       -2.03812104
 C           -3.07426125        1.92470878       -2.54540547
 C           -0.40249339       -1.10098442       -3.54191727
 C            0.78428014       -0.59121371       -4.06602371
 C            0.77723986        0.65693659       -4.80005962
 C           -1.51141797       -0.25389389       -3.39474100
 C           -0.24945111        2.74007801       -4.58724110
 C           -1.30580700        3.12342888       -3.66981102
 C           -2.29663876        2.06547130       -3.67935470
 C           -0.47945207        1.35326109       -4.95654902
 C           -1.63002719        0.88328039       -4.20364911
