   70
C70 / DATE: 7/ 1/2024 / Origin: Program Fullerene / C70 from database
 C            1.27522494       -0.01237666        4.29518438
 C            2.53726708       -0.37595735        3.69356394
 C            2.48814629       -1.79470817        3.37992930
 C            0.45080576       -1.20813807        4.35710061
 C            1.12589782       -2.24746137        3.60033312
 C           -0.90013052       -0.83651547        3.97985434
 C            0.48474581        1.02811444        3.67084767
 C           -0.89014313        0.57188011        3.61983159
 C            0.98037834        1.73256141        2.57646838
 C            2.95911080        0.31897256        2.49466901
 C            2.20137804        1.36873382        1.98291538
 C            3.08356383       -1.97965327        2.07045749
 C            3.47227321       -0.67079698        1.56731653
 C            2.49827235       -2.88103546        1.19720956
 C            0.44182114       -2.89340923        2.57022057
 C            1.14540002       -3.35587554        1.45681999
 C           -1.63497132       -1.71500826        3.20345150
 C           -0.94811674       -2.79399094        2.50335644
 C           -2.63612613       -1.18007078        2.30029144
 C           -1.68570928        1.02624231        2.57121335
 C           -2.63171736        0.17714212        1.98351325
 C            0.07598460        2.50257320        1.84379514
 C           -1.28424146        2.17330241        1.88779288
 C            0.56717479        3.29796757        0.81483672
 C            2.47496614        1.78900612        0.68172124
 C            1.81964641        2.91546357        0.19478618
 C            3.37875670       -0.40512761        0.20291851
 C            3.10151239        0.90528774       -0.20449589
 C            2.61585544       -2.64646176       -0.22855322
 C            3.18665878       -1.46620442       -0.69209559
 C            0.46460058       -3.48377972        0.17478541
 C            1.40297519       -3.12643102       -0.86938623
 C           -1.62058418       -2.98210703        1.22640286
 C           -2.81129569       -2.15007469        1.23744973
 C           -0.86042795       -3.09018570        0.06438095
 C           -3.33566033       -1.71917658        0.03258080
 C           -3.32700601        0.60700710        0.84917842
 C           -3.75745130       -0.33398843       -0.09060770
 C           -2.17960512        2.76123260        1.00146233
 C           -3.27226271        1.95253773        0.49386576
 C           -0.32290221        3.76785937       -0.23178490
 C           -1.68873367        3.59139096       -0.08613195
 C            1.68874913        3.12126258       -1.23852782
 C            0.30119278        3.45369886       -1.50823019
 C            3.20665628        1.23476340       -1.55229131
 C            2.35823845        2.27610342       -2.10445674
 C            3.04612549       -1.19255013       -2.04817500
 C            3.25819993        0.16025050       -2.52002255
 C            0.95069876       -2.46781012       -2.00711484
 C            1.88311786       -1.72974181       -2.73916755
 C           -1.31443003       -2.50520973       -1.12083733
 C           -2.63454592       -2.05903689       -1.19204349
 C           -0.41489211       -2.19920938       -2.15285685
 C           -3.73655374       -0.01052169       -1.51008996
 C           -3.01783564       -1.07762790       -2.19165109
 C           -3.50798529        2.33945415       -0.88676576
 C           -2.47889371        3.29229138       -1.26597029
 C           -3.56037424        1.30851379       -1.90625042
 C           -0.41296582        2.73980003       -2.47215431
 C           -1.80637117        2.77767716       -2.44653358
 C           -2.56581070        1.63309816       -2.91834214
 C            1.63408218        1.70354766       -3.22596259
 C            2.27030089        0.43819909       -3.55022750
 C            1.44065300       -0.74243237       -3.71023659
 C            0.24353952        1.79479443       -3.26745221
 C           -0.84810816       -1.45895817       -3.25319217
 C           -2.12820685       -0.77331948       -3.20913234
 C           -1.90026629        0.61519896       -3.58550546
 C            0.08323488       -0.57494953       -3.92770028
 C           -0.48288080        0.76397302       -3.86655895
