   70
C70 / DATE: 7/ 1/2024 / Origin: Program Fullerene / C70 from database
 C            1.49650794        0.12704816        4.39327146
 C            0.70494183       -1.07989816        4.25506625
 C            1.42325193       -1.99321774        3.39286158
 C            2.62404305        0.02339919        3.48214146
 C            2.59064693       -1.28828294        2.87713244
 C            2.59761687        1.17471561        2.60787097
 C            0.67631796        1.24082845        3.95296169
 C            1.41566257        1.95021102        2.93872766
 C           -0.63234132       -0.69518412        3.86100023
 C           -0.63273768        0.73438882        3.60128519
 C           -1.31198363       -1.50757633        2.97004472
 C            0.69115451       -2.79312330        2.51965298
 C           -0.70411294       -2.67628068        2.49202324
 C            1.35024636       -3.30526284        1.40419215
 C            2.89935859       -1.41406400        1.52703604
 C            2.50280217       -2.58560005        0.88655480
 C            2.90773871        1.01016229        1.25808488
 C            3.18935022       -0.27206086        0.76374160
 C            2.49621645        2.01189235        0.36963371
 C            0.72336474        2.51276735        1.88296369
 C            1.47141391        2.87511993        0.77856223
 C           -1.24448914        1.19913280        2.43512050
 C           -0.63313596        2.21380232        1.68776636
 C           -2.33939081       -0.93474628        2.23195543
 C           -2.22115462        0.40381975        1.83256336
 C           -3.24174468       -1.78405373        1.61092619
 C           -1.42301900       -3.48644564        1.61354080
 C           -2.79093648       -3.12042222        1.27803245
 C            0.58541896       -3.78798989        0.26439053
 C           -0.78611950       -3.91641825        0.37988153
 C            2.43926682       -2.63925900       -0.56306906
 C            1.12388377       -3.14014639       -0.91763898
 C            3.46310831       -0.42282176       -0.59308049
 C            2.96472686       -1.59402205       -1.29624151
 C            2.85827838        1.92968970       -0.98052132
 C            3.30164475        0.71177229       -1.48772037
 C            2.41480551        2.89738177       -1.88110620
 C            0.86425706        3.71811811       -0.12991208
 C            1.45323631        3.88359689       -1.43721963
 C           -1.25318411        2.67213854        0.51753215
 C           -0.57394372        3.60535387       -0.27744703
 C           -2.85924927        0.86236121        0.67488481
 C           -2.33802265        1.96285560       -0.01364516
 C           -4.01715473       -1.30028677        0.49355861
 C           -3.79388978        0.05325921        0.02660828
 C           -2.94352192       -3.27950512       -0.15935476
 C           -1.61442459       -3.43483989       -0.70958000
 C           -3.76059072       -2.18963144       -0.63280435
 C            0.28709528       -2.36638281       -1.72594257
 C           -1.09830507       -2.47090191       -1.58211470
 C            2.21332079       -1.11204641       -2.43785878
 C            2.72883814        0.20732026       -2.72940108
 C            0.83811972       -1.34225791       -2.49749388
 C            2.02183022        2.47911329       -3.21644862
 C            1.96192130        1.05862703       -3.50387976
 C            0.37286165        3.93610812       -2.40695606
 C           -0.87566016        3.72149314       -1.69455478
 C            0.71626349        3.04805629       -3.50068797
 C           -2.70874554        2.15382123       -1.34757180
 C           -1.83453150        2.88682435       -2.24236742
 C           -3.75288840       -0.03131409       -1.41983636
 C           -3.25590508       -1.36002199       -1.70601565
 C           -1.93419800       -1.49563646       -2.14506555
 C           -3.19184863        1.02030614       -2.11008108
 C            0.00512755       -0.39431831       -3.09590929
 C            0.56782885        0.71378983       -3.74038519
 C           -0.18358455        1.95539190       -3.82258723
 C           -1.47938124        1.97888223       -3.33221918
 C           -1.37412846       -0.43699023       -2.86788755
 C           -2.13814456        0.71746053       -3.05696455
