   70
C70 / DATE: 7/ 1/2024 / Origin: Program Fullerene / C70 from database
 C            1.19593907        0.04016708        4.21180703
 C            2.51675438       -0.25205579        3.70454776
 C            2.56075844       -1.66984716        3.39949768
 C            0.38476005       -1.15825244        4.05471196
 C            1.19452902       -2.15947758        3.39706109
 C           -0.85929919       -0.76315049        3.43656493
 C            0.45932604        1.13995520        3.62245152
 C           -0.89266177        0.68392359        3.38256444
 C            1.05214271        1.93687767        2.64935790
 C            2.97852904        0.46021315        2.52990187
 C            2.22850490        1.50932341        2.01288342
 C            3.34375384       -1.83873183        2.19197225
 C            3.52838090       -0.51574659        1.60277254
 C            3.00863840       -2.88849485        1.35353598
 C            0.71805028       -2.78725790        2.24704747
 C            1.64737908       -3.41162805        1.41710068
 C           -1.32770010       -1.45901415        2.33671782
 C           -0.54452813       -2.45548518        1.73249935
 C           -2.35974102       -0.88164284        1.61146590
 C           -1.60314956        1.29341469        2.35370815
 C           -2.45138809        0.51918858        1.54976232
 C            0.22403124        2.82405896        1.96289600
 C           -1.14387458        2.51719266        1.86939796
 C            0.82380621        3.62344465        0.99444421
 C            2.42939400        1.84559504        0.67852511
 C            1.90170241        3.04286486        0.22361907
 C            3.33668135       -0.33643206        0.22682102
 C            2.70718902        0.82620610       -0.23316681
 C            3.35882815       -2.76874827       -0.04514301
 C            3.44559941       -1.43797023       -0.61820069
 C            1.26031494       -3.80867637        0.07679822
 C            2.37675690       -3.51398306       -0.80597605
 C           -0.96919771       -3.01515812        0.51798208
 C           -0.02805413       -3.54221930       -0.37185408
 C           -3.01338005       -1.67672824        0.68601664
 C           -2.26476313       -2.75313919        0.06580924
 C           -3.83923054       -1.05821253       -0.32332708
 C           -3.20416869        1.14588710        0.54212770
 C           -3.79798985        0.38004221       -0.45561401
 C           -1.97237814        3.22261892        1.00505820
 C           -2.96604922        2.48659802        0.24683907
 C            0.01189050        4.41624598        0.09528253
 C           -1.42126253        4.24389582        0.13420742
 C            1.54339136        3.16624671       -1.17442033
 C            0.46250415        4.13707757       -1.25948704
 C            2.10834195        0.84985471       -1.50140125
 C            1.49720714        2.01985108       -1.96002832
 C            2.70845535       -1.45319192       -1.86917761
 C            2.11258910       -2.77341720       -2.02360989
 C            1.97531904       -0.33066296       -2.23832054
 C           -0.22768756       -3.40577056       -1.74584148
 C            0.84241352       -2.86435410       -2.56889025
 C           -2.53225553       -2.70457222       -1.36395636
 C           -3.48052989       -1.63559796       -1.60710139
 C           -1.47767011       -2.86500623       -2.24475004
 C           -3.49410821        0.69310915       -1.84301071
 C           -3.10211070       -0.54767881       -2.49292322
 C           -2.82637822        2.87167508       -1.15022783
 C           -1.87430838        3.96558753       -1.21902624
 C           -0.70484988        3.82531730       -2.06451688
 C           -2.80486835        1.87028846       -2.11871900
 C            0.56628205        1.94392973       -2.99267847
 C           -0.64178674        2.75415707       -2.94302652
 C           -1.77850038        1.84962826       -3.06547355
 C            0.91183617       -0.47559510       -3.13228223
 C            0.29741974       -1.71537648       -3.26564179
 C           -1.15242539       -1.79300186       -3.17898891
 C           -1.89418145       -0.61023281       -3.18275524
 C            0.19310483        0.64611774       -3.51812508
 C           -1.26202748        0.57595633       -3.54609458
