   70
C70 / DATE: 7/ 1/2024 / Origin: Program Fullerene / C70 from database
 C            1.60966614       -0.03935763        4.42383133
 C            0.80071649       -1.21213196        4.16973320
 C            1.48905940       -2.02950960        3.18924375
 C            2.70745966       -0.05233685        3.47158736
 C            2.57135060       -1.22836266        2.64487544
 C            2.72547523        1.23088858        2.81788687
 C            0.79089715        1.12487366        4.13345989
 C            1.55969966        1.97774234        3.26786356
 C           -0.54071913       -0.76884228        3.84579292
 C           -0.49374202        0.67050259        3.65307157
 C           -1.25148301       -1.51998838        2.92724595
 C            0.70705021       -2.75325750        2.29942792
 C           -0.67896363       -2.70168947        2.45528302
 C            1.22306907       -3.02391937        1.03273582
 C            2.66642897       -1.10462843        1.26175170
 C            2.16784538       -2.14911850        0.48422987
 C            3.04408015        1.30329203        1.46475992
 C            2.91242329        0.15010076        0.66878890
 C            2.83760932        2.54697706        0.87814574
 C            0.90053797        2.73178499        2.31148721
 C            1.74284286        3.34710397        1.40097250
 C           -1.00162225        1.20831442        2.46784797
 C           -0.37162637        2.31152412        1.86886208
 C           -2.17637489       -0.86670986        2.12184684
 C           -1.92719357        0.45566428        1.73714392
 C           -3.05421675       -1.64611173        1.38644321
 C           -1.46511722       -3.54952352        1.68461258
 C           -2.75480177       -3.06218970        1.22803790
 C            0.51243848       -3.88642956        0.20058793
 C           -0.84204594       -4.25346143        0.57706754
 C            0.51206957       -3.66041679       -1.23372623
 C            2.38924092       -2.13346939       -0.88572170
 C            1.46358309       -2.81734294       -1.77486378
 C            2.87288825        0.26812754       -0.73157519
 C            2.75743512       -0.87937917       -1.51508140
 C            2.80900362        2.66905318       -0.56149657
 C            2.71856589        1.52109963       -1.33436596
 C            1.16785529        4.09206674        0.31422915
 C            1.95207537        3.80177444       -0.87400736
 C           -0.89702976        2.82737771        0.67397017
 C           -0.21454489        3.83993458       -0.00812153
 C           -2.42982190        0.94875478        0.52564654
 C           -1.95588099        2.17488336        0.03253301
 C           -3.53068210       -1.15749597        0.11402881
 C           -3.30066087        0.16182691       -0.25024559
 C           -2.88594590       -3.39453019       -0.18138388
 C           -1.68742907       -4.08669534       -0.59517616
 C           -0.87240222       -3.49844604       -1.64297232
 C           -3.24991782       -2.18174809       -0.87808882
 C           -1.27190284       -2.30513686       -2.25515815
 C           -2.56335113       -1.80171646       -2.02867256
 C            1.04675905       -1.85405775       -2.77323123
 C            2.05437501       -0.81294616       -2.78695415
 C           -0.30033923       -1.50562063       -2.87603265
 C            2.17232234        1.61795112       -2.61519991
 C            1.71870556        0.42418496       -3.30290600
 C            1.02608442        3.69364336       -1.98602195
 C           -0.31159075        3.91962157       -1.45374026
 C            1.22825930        2.68456871       -2.91866318
 C           -2.35413837        2.62430486       -1.22961827
 C           -1.39970431        3.32533833       -2.06686233
 C           -3.42277700        0.42893463       -1.60745446
 C           -2.90051867       -0.55605320       -2.54138544
 C           -3.08250838        1.73651120       -2.10341117
 C           -0.64642255       -0.27181430       -3.43279408
 C            0.34989215        0.66052732       -3.73296198
 C            0.08326407        2.08571135       -3.58508918
 C           -1.19768148        2.51109238       -3.25699156
 C           -1.97317202        0.13600317       -3.40853647
 C           -2.28470025        1.55237707       -3.30652064
