   70
C70 / DATE: 7/ 1/2024 / Origin: Program Fullerene / C70 from database
 C            1.25663330        0.08602073        4.32314917
 C            2.51345853       -0.24778834        3.69708084
 C            2.50638237       -1.68031522        3.46967601
 C            0.42178913       -1.11037285        4.30731120
 C            1.12472847       -2.11631671        3.54677932
 C           -0.89481728       -0.70210592        3.87092682
 C            0.45974524        1.15196622        3.75331928
 C           -0.91561268        0.74457722        3.94570073
 C            0.81831736        1.72136440        2.52845588
 C            2.84455954        0.37949559        2.43466411
 C            1.94430938        1.25558429        1.83521138
 C            3.22499666       -1.92804291        2.23841037
 C            3.47883011       -0.63268363        1.61145711
 C            2.77918562       -2.96634973        1.43768249
 C            0.53417373       -2.66147623        2.40736964
 C            1.36497020       -3.32541560        1.49938216
 C           -1.47604469       -1.31162338        2.76312841
 C           -0.73146043       -2.21587272        1.98491088
 C           -2.61117756       -0.70860932        2.21653008
 C           -1.88944864        1.41276448        3.23069872
 C           -2.88368238        0.62850677        2.51887215
 C           -0.15262603        2.45246806        1.83591986
 C           -1.46714478        2.45378438        2.31279292
 C            0.10840985        2.90353333        0.53881547
 C            2.04019433        1.47507558        0.46468999
 C            1.26291313        2.47155030       -0.11683409
 C            3.39683467       -0.52066767        0.22313972
 C            2.77509537        0.59533057       -0.34209346
 C            3.16431880       -2.94810104        0.04369412
 C            3.51845494       -1.67157169       -0.54746291
 C            0.90681085       -3.54288592        0.13862050
 C            2.06061692       -3.49036183       -0.72732312
 C           -1.18740729       -2.56631859        0.70793758
 C           -0.26903180       -2.93330135       -0.26846975
 C           -3.23498707       -1.30400446        1.12789441
 C           -2.47039207       -2.22200269        0.30998684
 C           -4.05614229       -0.49690992        0.24029330
 C           -3.44968875        1.50443044        1.50269585
 C           -2.56929734        2.66003496        1.38963703
 C           -4.01683204        0.94810312        0.36390282
 C           -0.91808311        3.50012226       -0.19355129
 C           -2.29852912        3.20520516        0.14586897
 C           -0.84122649        3.53351389       -1.63996881
 C            1.48380102        2.81360967       -1.44884194
 C            0.38956431        3.34652332       -2.24700999
 C            2.68766620        0.69871509       -1.73408524
 C            2.24898860        1.90343415       -2.28426086
 C            2.97799718       -1.67479360       -1.89100039
 C            1.96282119       -2.71663948       -1.94285254
 C            2.68323702       -0.46868920       -2.51204214
 C           -0.39870440       -2.42059556       -1.56951994
 C            0.70739127       -2.37295002       -2.43362607
 C           -2.68377055       -1.86674100       -1.08151795
 C           -3.70570551       -0.84010952       -1.12769566
 C           -1.57667886       -1.75009929       -1.91473944
 C           -3.70001459        1.49847916       -0.94513843
 C           -2.93168658        2.65154862       -1.04241307
 C           -1.98120363        2.77635218       -2.13500136
 C           -3.41754165        0.38902311       -1.84098306
 C           -1.53262243       -0.71673256       -2.85221982
 C           -1.75501038        1.69540240       -2.98480659
 C           -2.28999674        0.44506748       -2.65487284
 C            0.41703467        2.67218077       -3.53160235
 C            1.65386098        1.91785926       -3.60952833
 C           -0.67651391        1.77217661       -3.86061481
 C            1.81705982       -0.55273874       -3.59759746
 C            0.69635222       -1.47088120       -3.49426861
 C           -0.50505838       -0.71215485       -3.78190506
 C            1.35131630        0.65416745       -4.24134109
 C           -0.09467979        0.54825173       -4.37141763
