   70
C70 / DATE: 7/ 1/2024 / Origin: Program Fullerene / C70 from database
 C            1.55469910        0.05127452        4.56194894
 C            0.76679173       -1.16380939        4.48369393
 C            1.37810846       -2.03745126        3.49832445
 C            2.62543123       -0.05461251        3.58813197
 C            2.53193661       -1.34301005        2.94131351
 C            2.56880788        1.11629516        2.75221573
 C            0.70048127        1.15656617        4.15743015
 C            1.34086668        1.82991382        3.05087735
 C           -0.61481617       -0.77901688        4.29468955
 C           -0.63173121        0.63738926        3.95688881
 C           -1.43294853       -1.63353651        3.57309349
 C            0.55992038       -2.77385411        2.64231228
 C           -0.82836583       -2.70330580        2.78549942
 C            1.09931586       -3.21570242        1.43786188
 C            2.76502500       -1.42865862        1.57041349
 C            2.28259293       -2.55148366        0.91392849
 C            2.90666554        0.99856911        1.41738829
 C            3.04053975       -0.26852426        0.82843534
 C            2.52180718        2.04377897        0.60138144
 C            0.56975919        2.26593937        1.97329599
 C            1.23936660        2.57296374        0.78921875
 C           -1.35849062        1.04848658        2.84350969
 C           -0.78902989        1.93337018        1.90817162
 C           -2.49777374       -1.05955936        2.77149633
 C           -2.48137014        0.30261911        2.48944796
 C           -1.69229738       -2.94319374        1.63629525
 C           -2.79233454       -1.99164108        1.69793659
 C            0.22683482       -3.52332125        0.31488634
 C           -1.13635862       -3.26671113        0.40396044
 C            2.19867913       -2.55823609       -0.53100690
 C            0.94466686       -3.19559080       -0.90735940
 C            3.14558194       -0.34232487       -0.57293492
 C            2.63906667       -1.45823186       -1.25307758
 C            3.11189535        2.10073628       -0.64429723
 C            3.41608102        0.83462223       -1.28212398
 C            2.56052723        2.99685872       -1.63308737
 C            0.50903729        3.02984870       -0.30867403
 C            1.20158451        3.45852737       -1.44105125
 C           -1.52818535        2.29988126        0.77679487
 C           -0.86778674        2.76637400       -0.37505773
 C           -3.29934842        0.76605106        1.47312128
 C           -2.86646135        1.91887378        0.71123602
 C           -3.34259268       -1.49591945        0.51999780
 C           -3.84733695       -0.19646404        0.52905212
 C           -1.85390943       -2.99003685       -0.75456414
 C           -3.00731672       -2.10467260       -0.69052476
 C            0.24736103       -2.72583924       -2.01797841
 C           -1.14551900       -2.71660851       -1.99665244
 C            2.19596385       -1.33793621       -2.56779741
 C            0.91549296       -1.92046108       -2.93686417
 C            3.03645144        0.95286344       -2.68071023
 C            2.63061221        2.32761267       -2.92010927
 C            2.33754334       -0.08336220       -3.27978847
 C            0.55373717        3.39535484       -2.72952255
 C            1.38287259        2.58656084       -3.61068306
 C           -1.53291838        2.78918936       -1.61804880
 C           -0.78641540        2.87062406       -2.78351206
 C           -3.52369375        1.84381270       -0.57304236
 C           -4.07117344        0.50385816       -0.72049538
 C           -2.74589150        2.13263208       -1.74902372
 C           -3.06294536       -1.35675313       -1.94069520
 C           -1.86825122       -1.66851408       -2.70353832
 C           -3.55058428       -0.06219765       -1.94997423
 C           -2.79433449        0.97472899       -2.62752271
 C            0.17323982       -0.91466063       -3.68087807
 C            1.08257710        0.17616440       -3.97894145
 C            0.58033726        1.46508225       -4.06784820
 C           -0.79191382        1.71670229       -3.66889774
 C           -1.15244154       -0.65609430       -3.33919370
 C           -1.64772248        0.65717014       -3.35877239
