   70
C70 / DATE: 7/ 1/2024 / Origin: Program Fullerene / C70 from database
 C            1.15604584       -0.09901438        4.53303569
 C            2.32415500       -0.43370269        3.75032979
 C            2.13377198       -1.77590444        3.22650687
 C            0.28467699       -1.26340048        4.54340447
 C            0.78156558       -2.18984871        3.54101979
 C           -1.07828384       -0.79034655        4.43122469
 C            0.35582685        1.04045251        4.12986996
 C           -1.03931470        0.64799639        4.22312612
 C            0.74043529        1.81142926        3.03709481
 C            2.68135614        0.42126125        2.63401429
 C            1.95858440        1.57743469        2.38098902
 C            2.54017510       -1.76075665        1.83907232
 C            3.00832583       -0.42744709        1.50833369
 C            1.76270609       -2.41258567        0.90194297
 C           -0.05773959       -2.59776895        2.50139428
 C            0.50014671       -2.91075095        1.25182477
 C           -1.91328667       -1.35086063        3.39238957
 C           -1.44118657       -2.40432044        2.61570811
 C           -1.92490080        0.96690983        3.10879525
 C           -2.58740313       -0.25658818        2.71313238
 C           -0.26111059        2.48838753        2.34609762
 C           -1.46575786        1.82763824        2.12365511
 C            0.12353842        3.46385799        1.44677077
 C            2.16391351        2.20669718        1.15669478
 C            1.48598619        3.40117105        0.96411150
 C            2.77712353        0.05770454        0.21835310
 C            2.49683127        1.41703290        0.04054814
 C            2.02386625       -2.14221891       -0.42860771
 C            2.42159293       -0.84538908       -0.78822998
 C            1.47314679       -2.99827901       -1.36273386
 C           -0.30601167       -3.47619507        0.25497007
 C            0.20994885       -3.63277566       -1.03652170
 C           -2.25617414       -2.78451027        1.55962600
 C           -1.68480451       -3.50421063        0.44153749
 C           -2.94495110       -0.45247218        1.38321359
 C           -3.14592250       -1.77521532        1.00577728
 C           -1.92742769        1.68127694        0.81098808
 C           -2.54118154        0.48471019        0.41418918
 C           -0.70220137        3.66530979        0.27762190
 C           -1.50469833        2.60519126       -0.15144210
 C            1.51223672        4.03000023       -0.33474784
 C            0.13618771        4.37705364       -0.66427777
 C            2.28706849        1.90535165       -1.25764170
 C            2.02738203        3.26644350       -1.44565478
 C            2.21953632       -0.37261969       -2.08999555
 C            2.13536397        1.00466886       -2.32431074
 C            1.44665822       -2.61105344       -2.75134730
 C            1.80231851       -1.24962491       -3.09447772
 C           -0.66537534       -3.48010754       -2.19318134
 C            0.10139315       -2.85186681       -3.24977785
 C           -2.56322750       -3.26610829       -0.69089852
 C           -3.36344301       -2.09191895       -0.38296743
 C           -1.97231536       -3.06452645       -1.99604589
 C           -2.60681872        0.16894996       -0.95232656
 C           -3.05914045       -1.08117820       -1.36731943
 C           -2.37219326       -1.74028292       -2.46073600
 C           -1.53355986        2.25318874       -1.50756262
 C           -1.92634113        0.96335068       -1.87450901
 C           -0.04157514        4.12318202       -2.07193629
 C            1.25063556        3.70021022       -2.58806752
 C           -0.99452451        3.10904528       -2.47052482
 C            1.58542655        1.43480787       -3.53746094
 C            0.98933896        2.74876943       -3.63714443
 C           -0.45217688        2.53660236       -3.68143301
 C            0.80960846       -0.79728946       -4.05181925
 C           -0.37573803       -1.59833932       -3.80004468
 C           -1.49640300       -0.98636983       -3.23387441
 C           -1.49777591        0.40094302       -3.08962601
 C            0.65068553        0.56402208       -4.21534576
 C           -0.65459501        1.12479666       -3.92477294
