   70
C70 / DATE: 7/ 1/2024 / Origin: Program Fullerene / C70 from database
 C            1.20707537        0.03376309        4.40078245
 C            2.51810917       -0.20002184        3.84492890
 C            2.54926374       -1.56772005        3.35779004
 C            0.39360010       -1.14461607        4.13854044
 C            1.18523948       -2.06647238        3.35469397
 C           -0.87031599       -0.69380685        3.60225949
 C            0.45936324        1.18483859        3.94075329
 C           -0.90569821        0.75091957        3.68989584
 C            1.03778771        2.10055424        3.06219853
 C            2.97638750        0.65761044        2.77084134
 C            2.24407589        1.78830049        2.40817846
 C            3.28564156       -1.57913550        2.10806513
 C            3.51777302       -0.19506439        1.72095331
 C            2.89324488       -2.47956601        1.13402580
 C            0.66825274       -2.58158680        2.16710435
 C            1.56948486       -3.08185536        1.23176576
 C           -1.37245358       -1.28057088        2.45760713
 C           -0.62152234       -2.22813055        1.74759626
 C           -2.41269790       -0.63201564        1.81363929
 C           -1.66445527        1.46915825        2.76549379
 C           -2.45666624        0.77327127        1.83082319
 C            0.18369684        3.06016246        2.52200437
 C           -1.24095569        2.76558949        2.48199568
 C            0.52628057        3.74067867        1.28520601
 C            2.54208377        2.36814821        1.17710004
 C            1.62737714        3.31305986        0.56699109
 C            3.36649368        0.19508338        0.38748080
 C            3.09505190        1.53413083        0.12088690
 C            3.07372424       -2.11521121       -0.25309880
 C            3.12619279       -0.76639318       -0.60284151
 C            1.12141092       -3.36141168       -0.12214871
 C            2.21634326       -3.00605327       -1.00932192
 C           -1.09165153       -2.67008370        0.50329179
 C           -0.18336075       -3.04281077       -0.48851991
 C           -3.11650257       -1.35331459        0.86467096
 C           -2.40847973       -2.39866362        0.14775183
 C           -3.95820759       -0.65081064       -0.06997209
 C           -3.11370220        1.47713316        0.80233272
 C           -3.78994026        0.77813672       -0.19249030
 C           -1.80618227        3.47287334        1.35799915
 C           -0.70816817        4.01486412        0.57355738
 C           -2.67268822        2.74937334        0.45864549
 C           -0.86000871        3.53097237       -0.78851257
 C           -2.19063231        2.96659310       -0.89516491
 C            1.47199565        2.94167070       -0.83313478
 C            2.43923073        1.89722357       -1.12129864
 C            0.20018881        2.87534366       -1.40482672
 C            2.63874069       -0.37660823       -1.85595870
 C            2.09702159        0.90003949       -2.01721016
 C            1.91990172       -2.67161917       -2.31543465
 C            2.33373272       -1.36418888       -2.79315077
 C           -0.47910357       -2.81539515       -1.83980600
 C            0.55822507       -2.85243214       -2.77477857
 C           -2.75621982       -2.28898609       -1.25719722
 C           -3.76293192       -1.24596549       -1.38079111
 C           -1.75266447       -2.36810904       -2.21767209
 C           -3.45678821        1.06933102       -1.57881912
 C           -2.42974944        1.97729090       -1.83996440
 C           -3.54164488       -0.17239687       -2.33316829
 C           -0.06977836        1.90131268       -2.36955483
 C            0.97039714        1.07945331       -2.81660031
 C           -1.40004239        1.60606068       -2.70603223
 C            1.46786312       -1.03594087       -3.91426888
 C            0.45482335       -2.07801361       -3.99365077
 C            0.77560025        0.23673206       -3.90130290
 C           -1.92341024       -1.64874125       -3.40442492
 C           -2.64621765       -0.38997769       -3.36843029
 C           -1.67122519        0.64169802       -3.67219101
 C           -0.80458881       -1.44202996       -4.30107245
 C           -0.57302074       -0.00565165       -4.36504044
