   70
C70 / DATE: 7/ 1/2024 / Origin: Program Fullerene / C70 from database
 C            1.22756988        0.07665016        4.70452608
 C            2.42672227       -0.02703161        3.89990955
 C            2.44911330       -1.36090533        3.32726539
 C            0.39342141       -1.07788565        4.40045929
 C            1.12336656       -1.92154529        3.46806003
 C           -0.91713307       -0.58744230        4.01097189
 C            0.40638489        1.25954358        4.56003820
 C           -0.96138182        0.82181850        4.33096622
 C            0.72040798        2.21134674        3.50838732
 C            2.63183333        0.91329744        2.80831851
 C            1.68011955        1.89382340        2.54303563
 C            2.99467320       -1.24849894        1.99174366
 C            3.18804490        0.15976712        1.70399904
 C            2.46059111       -2.03055472        0.97689191
 C            0.47641860       -2.36958576        2.32082753
 C            1.23050093       -2.67093595        1.18133206
 C           -1.45199513       -1.01673545        2.80247289
 C           -0.88822435       -2.12791171        2.18220085
 C           -2.29259702       -0.17241695        2.06588304
 C           -1.54303866        1.72771663        3.36097239
 C           -0.55318606        2.75400010        3.08145817
 C           -2.27469434        1.21235588        2.29522139
 C           -0.61553102        3.39840578        1.85875256
 C            1.51828162        2.35742137        1.23301551
 C            0.52876353        3.30145156        0.96696867
 C            2.95078387        0.57848436        0.40196787
 C            2.13966814        1.69468531        0.16658528
 C            2.82574848       -1.70498044       -0.32442559
 C            3.09976729       -0.36366679       -0.61389921
 C            2.45009397       -2.57884137       -1.33507718
 C            0.59730620       -3.28429555        0.09427917
 C            1.30057991       -3.43158786       -1.10067233
 C           -1.56174230       -2.70812316        1.12272736
 C           -0.79623656       -3.37169910        0.08114071
 C           -2.94237246       -0.68053134        0.93301259
 C           -2.63672984       -1.96631715        0.48812409
 C           -3.56128122        0.19413846        0.04164327
 C           -2.59737965        2.07975488        1.25474574
 C           -1.79505031        3.20123737        1.03687702
 C           -3.41706767        1.62440839        0.23260257
 C            0.03415212        3.45915206       -0.39170935
 C           -1.41509695        3.55925520       -0.31815996
 C            1.79919403        2.01911761       -1.15308681
 C            0.61828396        2.72446937       -1.41696942
 C            3.08611827        0.08982278       -1.92561559
 C            2.46255638        1.37256365       -2.19306922
 C            2.41191650       -2.12982350       -2.71542794
 C            2.74605455       -0.81655184       -3.00944356
 C            0.56925945       -3.54323312       -2.35124375
 C            1.24034338       -2.72074245       -3.34208438
 C           -1.53007839       -3.21241768       -1.16759609
 C           -2.56286561       -2.21969822       -0.94226510
 C           -0.83968321       -3.20427675       -2.36705994
 C           -3.47744264       -0.07631760       -1.38779754
 C           -2.71099513       -1.15154258       -1.82063348
 C           -3.32194993        2.24211010       -1.07903321
 C           -2.17912095        3.08808958       -1.37315167
 C           -3.37286255        1.18714470       -2.07732083
 C           -0.12009243        2.46889117       -2.58218576
 C           -1.51046741        2.53402237       -2.53619084
 C           -2.26762917        1.37659372       -2.98657394
 C            1.82120749        1.28970255       -3.48663744
 C            1.93857458       -0.07809747       -3.96541243
 C            0.43300716        1.67904854       -3.58327078
 C            0.24619412       -1.85285569       -3.95193583
 C           -1.02119426       -2.08249134       -3.27601764
 C           -1.81025036       -0.99697208       -2.88806848
 C           -1.55969209        0.26957244       -3.44248569
 C            0.60460524       -0.55794752       -4.29407422
 C           -0.32656557        0.52459739       -4.03878826
