   70
C70 / DATE: 7/ 1/2024 / Origin: Program Fullerene / C70 from database
 C            1.38852788        0.06785619        5.12127377
 C            0.60453387       -1.08168896        4.71033297
 C            1.49872548       -1.95919220        3.99708437
 C            2.58162407        0.09750720        4.28904998
 C            2.71145503       -1.20595679        3.69031624
 C            2.47551700        1.25050179        3.41588502
 C            0.61949488        1.25354399        4.80582874
 C            1.46936582        2.11597035        4.00892508
 C           -0.57807492       -0.59717580        4.02005418
 C           -0.64885935        0.83866684        4.22637654
 C           -0.90825676       -1.11021621        2.76685828
 C            1.04257044       -2.53326530        2.74982851
 C           -0.21926284       -2.21214088        2.24162521
 C            2.90981369       -1.29501706        2.25691827
 C            2.16333612       -2.45589471        1.83930875
 C            2.49822665        1.08516800        2.02330324
 C            2.83475478       -0.15559827        1.45497381
 C            1.96019529        2.09681946        1.21877762
 C            0.83411961        3.02020463        3.18253830
 C            1.33612660        3.18114403        1.83398536
 C           -1.18522680        1.63854587        3.22118391
 C           -0.60481912        2.89283019        3.03090594
 C           -1.70330562       -0.34416978        1.92151016
 C           -1.85555532        1.03300952        2.14934683
 C           -2.18935214       -0.91906044        0.75157467
 C           -0.46628384       -2.59609833        0.91706618
 C           -1.53753016       -2.02900069        0.21256822
 C            1.86522443       -2.57854454        0.50093602
 C            0.61966226       -3.09286283        0.19558316
 C            2.65785927       -0.35179973        0.08029381
 C            2.39389946       -1.64843094       -0.38940016
 C            1.78896473        1.87669762       -0.15304414
 C            2.36289457        0.74268303       -0.72894101
 C            0.87365759        2.64228138       -0.89643379
 C            0.29478457        3.89003784        1.12506309
 C           -0.94638212        3.65904472        1.85365886
 C            0.04865715        3.55214438       -0.25675302
 C           -2.43270804        1.83972682        1.15942893
 C           -1.89305063        3.09924189        0.91602775
 C           -1.37946144        3.38320980       -0.41168770
 C           -3.09051486       -0.20418277       -0.01762826
 C           -3.11970712        1.23938003        0.11093566
 C           -3.24321274       -0.52435052       -1.42406573
 C           -1.73896380       -2.38999061       -1.13103079
 C           -2.58032189       -1.62558466       -1.95722625
 C            0.43043797       -3.49195319       -1.10954828
 C           -0.88268542       -3.34027836       -1.68758507
 C            2.13611339       -1.86199328       -1.74800964
 C            1.36918664       -2.97955855       -2.09106835
 C            2.27378205        0.56024946       -2.10458490
 C            2.22820044       -0.79039841       -2.63441607
 C            0.45305165        2.17560693       -2.13729183
 C            1.31773940        1.35698679       -2.84919588
 C           -1.82910439        2.59642198       -1.46255539
 C           -2.93272410        1.78249406       -1.22410794
 C           -3.24837665        0.73003742       -2.16771683
 C           -0.91550077        2.20786878       -2.44758441
 C           -2.64462963        0.76500553       -3.41544394
 C           -1.39923718        1.50715250       -3.55204847
 C           -2.48707715       -1.71368249       -3.35077328
 C           -2.48911198       -0.48733367       -4.12561110
 C           -0.68545958       -3.40491623       -3.12213100
 C            0.70476924       -3.05134368       -3.37919168
 C           -1.51281584       -2.58615613       -3.97081392
 C            1.42316448       -0.76143119       -3.85171388
 C            0.82633373        0.56387265       -3.95971128
 C           -0.49320303        0.71357341       -4.36504955
 C           -1.23389953       -0.43399826       -4.85609818
 C            0.71076418       -1.89024418       -4.24311534
 C           -0.63285964       -1.75197545       -4.77775035
