   70
C70 / DATE: 7/ 1/2024 / Origin: Program Fullerene / C70 from database
 C            1.26477926       -0.02631623        4.11814500
 C            2.44701710       -0.21912766        3.29813663
 C            2.39737038       -1.57571558        2.77322547
 C            0.41481520       -1.19511384        3.94856137
 C            1.05008260       -2.07299815        2.99558834
 C           -0.91987801       -0.73498769        3.66212873
 C            0.44751282        1.15476388        3.91576830
 C           -0.92427029        0.71595921        3.73907532
 C            0.93252763        2.18142351        3.12633880
 C            2.89861260        0.80999213        2.47567615
 C            2.20345460        2.02226350        2.42928407
 C            3.75254147        0.48572620        1.42406745
 C            3.02604556       -1.85688826        1.56460269
 C            3.90648271       -0.91025660        1.04384196
 C            2.45314050       -2.81608472        0.72575750
 C            0.32496508       -2.55332106        1.90950189
 C            1.04892587       -3.16644197        0.89753343
 C           -1.64649529       -1.33262419        2.63940913
 C           -0.96419417       -2.05629133        1.64615825
 C           -2.84777171       -0.71614053        2.32356294
 C           -1.78570342        1.40336858        2.88704179
 C           -2.94196941        0.72268399        2.52440109
 C            0.01941862        2.88243222        2.23968307
 C           -1.26749912        2.38490266        2.02456226
 C            2.09974218        2.73285899        1.16479063
 C            0.79763923        3.37385313        1.11575669
 C            3.69156140        1.26352528        0.19683753
 C            2.63675125        2.14951931        0.02190204
 C            4.26363545       -0.94168211       -0.36326106
 C            4.08761227        0.40196236       -0.89537398
 C            2.74466815       -2.82974770       -0.70087957
 C            3.57535409       -1.86026576       -1.24817341
 C            0.46147055       -3.32505822       -0.41395500
 C            1.52694440       -3.21215200       -1.39753005
 C           -1.52103954       -2.18312774        0.35697350
 C           -0.77645562       -2.75659161       -0.68264477
 C           -3.51068812       -1.03040913        1.08077691
 C           -2.82277574       -1.73361963        0.10098321
 C           -3.78665847        1.26265192        1.48751600
 C           -4.26945445        0.14659995        0.69453479
 C           -1.94960042        2.74270591        0.84897143
 C           -3.21694669        2.23508650        0.58564603
 C            0.17708303        3.54009334       -0.10839091
 C           -1.25440464        3.32579375       -0.20621466
 C            1.88355795        2.11799410       -1.16001398
 C            0.79082656        2.96676860       -1.29423237
 C            3.21959794        0.30947959       -2.04827943
 C            3.12646892       -1.09517307       -2.40080448
 C            2.07323100        1.09977748       -2.10178593
 C            1.23909958       -2.65333909       -2.63455570
 C            2.01809178       -1.51947586       -3.11536574
 C           -1.14239931       -2.54137035       -2.01313704
 C           -0.14852714       -2.39734868       -2.98086659
 C           -3.27015471       -1.63011052       -1.21555080
 C           -2.40791979       -2.05041413       -2.30151580
 C           -4.24857150        0.54860658       -0.69628041
 C           -3.54967980        1.82882058       -0.77382283
 C           -3.97017859       -0.42256601       -1.64266608
 C           -1.54425565        2.90115899       -1.56556718
 C           -0.27331860        2.61482430       -2.21609021
 C           -2.63739388        2.07166795       -1.80703274
 C            1.02758336        0.72510216       -2.95477810
 C            1.07155546       -0.52052116       -3.57956319
 C           -0.16620462       -1.22291706       -3.83806767
 C           -0.15435376        1.47232037       -2.99751650
 C           -2.54339666       -1.07842200       -3.37354554
 C           -3.38465986        0.00076975       -2.89486674
 C           -2.59963366        1.22105217       -2.91169600
 C           -1.33726382       -0.49053478       -3.92463898
 C           -1.31645010        0.91064551       -3.52807696
