   70
C70 / DATE: 7/ 1/2024 / Origin: Program Fullerene / C70 from database
 C            0.92483691       -0.02580818        4.78081842
 C            2.19710126       -0.32835112        4.16085030
 C            2.20444484       -1.74282624        3.84862913
 C            0.10851414       -1.23168325        4.74332646
 C            0.84054915       -2.22179041        3.98453677
 C           -1.21538613       -0.85995600        4.29557492
 C            0.12800480        1.04977143        4.23062144
 C           -1.24110210        0.58484297        4.16597669
 C            0.60220643        1.79395701        3.15565853
 C            2.56489934        0.37933912        2.95142909
 C            1.80069073        1.44787879        2.51188577
 C            2.85960968       -1.91161338        2.56160766
 C            2.99889739       -0.59207913        1.96278119
 C            2.42519786       -2.94747740        1.75764436
 C            0.25650245       -2.83699226        2.88006757
 C            1.12304981       -3.53555764        2.04577172
 C           -1.70944795       -1.41314453        3.04949812
 C           -0.94539098       -2.33433044        2.34290539
 C           -2.00558035        0.90743548        2.97468381
 C           -2.34916624       -0.33826467        2.31161875
 C           -0.32760308        2.53548617        2.43220404
 C           -1.57980736        1.95903653        2.17665094
 C            0.17932763        3.44195282        1.51147826
 C            1.97829960        1.85638337        1.19540984
 C            1.40342143        3.06095409        0.83034384
 C            2.65069387       -0.38779391        0.61899188
 C            2.22416377        0.88288398        0.21832613
 C            2.48541270       -2.77571825        0.32212516
 C            2.43923280       -1.48773905       -0.22111368
 C            0.61803904       -4.08116075        0.80824600
 C            1.60868916       -3.78722407       -0.21434438
 C           -1.24756366       -2.53516374        0.99327563
 C           -0.65134569       -3.58916292        0.32170306
 C           -2.33465419       -0.37284710        0.91618317
 C           -1.90240912       -1.53085572        0.26446874
 C           -2.09394088        2.02713277        0.88454144
 C           -2.37406368        0.83295222        0.20840769
 C           -0.71965727        3.98451786        0.51634331
 C           -1.87918407        3.19357785        0.16778192
 C            1.25512546        3.38006565       -0.57111728
 C            0.05216438        4.17961793       -0.69334015
 C            1.82515025        1.10035757       -1.10691653
 C            1.49629260        2.39784194       -1.52727572
 C            1.89656965       -1.29769492       -1.50520319
 C            1.66651268        0.00773129       -1.97463149
 C            0.88933513       -3.46509558       -1.41327788
 C           -0.53063317       -3.51887391       -1.11214062
 C            1.31615658       -2.39083198       -2.17609196
 C           -1.95092568       -1.58312134       -1.13647496
 C           -1.33650871       -2.64578491       -1.82467374
 C           -2.41140607        0.80321898       -1.19091960
 C           -2.35103345       -0.43685064       -1.84704899
 C           -1.96960329        3.17163942       -1.27520204
 C           -0.82176570        3.90104300       -1.80768767
 C           -2.37508446        2.00652643       -1.91911937
 C            0.97943167        2.60308905       -2.80506356
 C           -0.23415590        3.40595452       -2.95787924
 C            1.16717373        0.20277195       -3.27115530
 C            0.89178107        1.48997375       -3.72597920
 C            0.52100385       -2.14246148       -3.28161185
 C           -0.89987178       -2.41001061       -3.11970481
 C            0.63074532       -0.87924136       -3.96180504
 C           -2.43199202       -0.49334788       -3.23936084
 C           -1.61932936       -1.46409878       -3.92974540
 C           -0.62308278       -0.72274281       -4.68051584
 C           -2.22319089        1.97894314       -3.30291959
 C           -1.09767729        2.69580800       -3.87333537
 C           -0.27980562        1.72180855       -4.56002358
 C           -2.32714176        0.72571268       -4.00986784
 C           -1.14971650        0.60749006       -4.86682040
