   70
C70 / DATE: 7/ 1/2024 / Origin: Program Fullerene / C70 from database
 C            1.46128284       -0.04540870        4.68767695
 C            0.70681938       -1.23287482        4.34735737
 C            1.32033290       -1.85094260        3.18255840
 C            2.60582949        0.00918595        3.80175950
 C            2.49626452       -1.07207501        2.84457477
 C            2.66780437        1.35349086        3.27419628
 C            0.61887193        1.10106700        4.38119164
 C            1.35471774        1.95007840        3.47681385
 C           -0.67715801       -0.83007111        4.23643579
 C           -0.66519866        0.59661596        3.95104461
 C           -1.49272990       -1.61777322        3.45268080
 C            0.47904454       -2.30551151        2.16815286
 C           -0.85764891       -2.51523734        2.49620754
 C            0.81936957       -2.07269128        0.82917991
 C            2.74589565       -0.76947527        1.51629857
 C            2.00855690       -1.40333020        0.51281957
 C            3.24292191        1.53996763        2.02697580
 C            3.43632262        0.40752422        1.21920744
 C            2.92115085        2.73971857        1.40704524
 C            0.70951170        2.49120268        2.36608125
 C            1.53135524        3.15773061        1.46123656
 C           -1.21654549        1.04573283        2.74653522
 C           -0.47193065        1.88408293        1.90075261
 C           -2.53302674       -0.95732133        2.70328067
 C           -2.29178612        0.32919548        2.21974149
 C           -1.82554672       -2.74104602        1.44001401
 C           -3.00529948       -1.96219683        1.78018581
 C           -0.08029720       -2.41007422       -0.19183771
 C           -1.40554465       -2.75354001        0.11600240
 C            0.31201772       -2.28499153       -1.52835912
 C            2.35164577       -1.18187601       -0.82279387
 C            1.49724808       -1.61035839       -1.84422351
 C            3.92240597        0.56498008       -0.07317616
 C            3.39525511       -0.29619895       -1.12117499
 C            3.41657485        2.99799463        0.07595812
 C            4.05234633        1.90411482       -0.62434650
 C            1.09593316        3.33590690        0.09247927
 C            2.28697964        3.44702643       -0.72405819
 C           -0.83022477        1.98630700        0.54607847
 C            0.03841091        2.57291548       -0.37242210
 C           -2.80689764        0.66992963        0.96974969
 C           -1.99847553        1.38653775        0.07964383
 C           -3.81496006       -1.54023701        0.74694842
 C           -3.84759957       -0.11404042        0.47323809
 C           -2.38600487       -2.68188323       -0.87455085
 C           -3.64614108       -2.17308061       -0.54224668
 C           -0.60420783       -2.57873514       -2.54514371
 C           -2.00409397       -2.77388298       -2.20695955
 C           -0.55644039       -1.82769273       -3.79239196
 C            1.64194308       -1.05804666       -3.11587839
 C            0.47267862       -0.92061798       -3.95451039
 C            3.34349323        0.48905994       -2.34550609
 C            3.50720607        1.88005041       -1.96467460
 C            2.32725722        2.72978310       -1.97950028
 C            2.34343427        0.19872317       -3.25294190
 C           -0.01547638        2.19812713       -1.72009110
 C            0.13340825        0.49427260       -3.91742710
 C            1.15464770        2.19043349       -2.49599490
 C            1.30486162        1.19715083       -3.45321961
 C           -2.21796819        1.31260892       -1.30321047
 C           -1.15747199        1.53920190       -2.18919997
 C           -1.10819658        0.85637780       -3.41588858
 C           -4.25973354        0.03651672       -0.90753205
 C           -4.34231551       -1.30353352       -1.47023696
 C           -3.42121980        0.81356529       -1.79006339
 C           -2.80570010       -2.12474790       -3.23479946
 C           -1.90159778       -1.34921371       -4.05434380
 C           -2.17765042        0.05511627       -3.79963319
 C           -3.87699681       -1.23407353       -2.83569712
 C           -3.42171443        0.13048635       -3.06606856
