   70
C70 / DATE: 7/ 1/2024 / Origin: Program Fullerene / C70 from database
 C            1.09566424       -0.16128572        4.85481249
 C            2.34507678       -0.40002950        4.15667237
 C            2.23831133       -1.68746112        3.48683708
 C            0.24804186       -1.32458463        4.64627918
 C            0.86896338       -2.13999032        3.62014381
 C           -1.10119328       -0.85394654        4.43143309
 C            0.31257640        1.01815842        4.52686877
 C           -1.07066960        0.60095656        4.39797017
 C            0.81651801        1.95780036        3.63479782
 C            2.80526169        0.56734302        3.17689559
 C            2.12045522        1.76227144        3.01111634
 C            2.78452973       -1.54108880        2.14930441
 C            3.22940280       -0.16826917        2.00070110
 C            2.12074196       -2.13110881        1.07558995
 C            0.16718262       -2.45186844        2.45782055
 C            0.89326732       -2.75878806        1.30465048
 C           -1.80815691       -1.29578073        3.24668615
 C           -1.20648516       -2.17999083        2.35440426
 C           -1.83763793        1.02955958        3.23778141
 C           -2.49134887       -0.14496890        2.69668211
 C           -0.06382522        2.54323097        2.63424755
 C           -1.29672104        1.95507145        2.35110817
 C            2.07091016        2.36789533        1.69136144
 C            0.77329238        2.99424028        1.53616619
 C            3.11971860        0.40831476        0.74162815
 C            2.61753398        1.70787056        0.59452338
 C            2.42458823       -1.68077150       -0.21331554
 C            3.07528974       -0.44638838       -0.35319790
 C            1.81668907       -2.29661914       -1.31538054
 C            0.22069386       -3.33095431        0.23617929
 C            0.72902384       -3.13520117       -1.10924077
 C           -1.83378109       -2.36353339        1.12008047
 C           -1.22023549       -3.19442636        0.18820565
 C           -2.79338235       -0.17122202        1.34504114
 C           -2.74856906       -1.39570710        0.68707028
 C           -1.77860226        1.99496831        1.04132051
 C           -2.64898284        0.99402160        0.59272188
 C            0.22854357        3.05550376        0.26319048
 C           -1.13458643        2.80839246        0.11251401
 C            2.25274215        2.14451245       -0.68386513
 C            1.07485410        2.88744371       -0.83388431
 C            3.24250241        0.11852226       -1.60705361
 C            2.80231214        1.48772714       -1.78495254
 C            2.02011488       -1.79795279       -2.59717367
 C            2.86067620       -0.63575475       -2.77786219
 C            0.88071172       -1.66783542       -3.49352182
 C           -0.40877000       -3.05475444       -2.01362180
 C           -1.61951582       -3.14283516       -1.20698872
 C           -0.35068536       -2.19603431       -3.11440957
 C           -3.27956692       -1.45844283       -0.59504805
 C           -2.73124331       -2.39737479       -1.55916048
 C           -3.07132426        0.98450735       -0.74100246
 C           -3.54350687       -0.20921058       -1.28980055
 C           -1.71759704        2.99436092       -1.13253805
 C           -2.70539245        2.03296382       -1.58732149
 C            0.57213040        3.14944061       -2.10523619
 C           -0.86120950        3.32355540       -2.25733987
 C            2.17247270        1.58860212       -3.09221523
 C            2.19088800        0.26977324       -3.69595671
 C            0.93292124       -0.34022236       -4.08778375
 C            1.03825025        2.36953779       -3.23720662
 C           -2.46366267        1.77907915       -3.00376148
 C           -1.29083426        2.53184174       -3.39763739
 C           -0.22275214        0.43552791       -4.12372934
 C           -0.13423531        1.81195088       -3.89909546
 C           -1.51328599       -1.58655033       -3.58374246
 C           -2.76023765       -1.76388786       -2.86235023
 C           -3.37740420       -0.45751805       -2.70966249
 C           -1.45952580       -0.20550846       -4.04194449
 C           -2.61792588        0.49292171       -3.49580481
