   70
C70 / DATE: 7/ 1/2024 / Origin: Program Fullerene / C70 from database
 C            1.18412251        0.03391790        5.05779007
 C            2.46687262        0.10559914        4.38673871
 C            2.60168602       -1.10502055        3.59544319
 C            0.44640398       -1.07904887        4.47326141
 C            1.29305798       -1.70388943        3.47372678
 C           -0.85188330       -0.58552316        4.06641824
 C            0.32130350        1.19886048        5.04718894
 C           -0.97616907        0.77810289        4.54751603
 C            0.72725213        2.37359915        4.29289250
 C            2.76844335        1.23597824        3.51626662
 C            1.88450597        2.30273599        3.41542518
 C            3.28143382       -0.75010483        2.37497307
 C            3.35768383        0.70083013        2.30631119
 C            2.94200750       -1.40973277        1.20424573
 C            0.78713565       -1.92042762        2.19284858
 C            1.67088028       -2.00192265        1.10807831
 C           -1.30971952       -0.86822545        2.78573118
 C           -0.57177807       -1.71028271        1.94980984
 C           -2.21838393        0.01053760        2.20428984
 C           -1.44506868        1.78919782        3.61758073
 C           -0.40512579        2.79493343        3.48966283
 C           -2.07223961        1.37732313        2.45039552
 C            1.48457612        2.77305729        2.09476878
 C            0.07469961        3.11229493        2.15068031
 C            3.09634630        1.30129779        1.07488550
 C            1.98556343        2.14524227        0.95499056
 C            3.48979416       -0.86364154        0.05788576
 C            3.50430526        0.58730215       -0.04237270
 C            3.08512649       -1.38128653       -1.22279494
 C            1.15944309       -2.32694489       -0.15723262
 C            1.99533146       -2.23944982       -1.27678795
 C           -1.08509228       -1.98885193        0.68665355
 C           -0.22784814       -2.41142319       -0.33375371
 C           -2.83213838       -0.37133213        1.01397840
 C           -2.35551792       -1.51146897        0.36475466
 C           -3.42630180        0.63227087        0.25263507
 C           -1.97858613        2.21610488        1.34910049
 C           -0.73421622        2.77658357        1.07107328
 C           -2.82605417        1.94972728        0.29177230
 C            1.20364058        2.11651032       -0.21314645
 C           -0.14058353        2.50147508       -0.16469597
 C            2.95052861        0.91804448       -1.33663277
 C            3.14120956       -0.26533019       -2.15047524
 C            1.73107571        1.58252474       -1.39246966
 C            2.42475097       -0.37298395       -3.32537024
 C            1.49176929       -2.54234018       -2.53582651
 C            1.86650951       -1.67418815       -3.64159117
 C           -0.75996616       -2.74883486       -1.58294251
 C            0.08446519       -2.85746069       -2.68507730
 C           -2.93791825       -1.90468076       -0.83444448
 C           -2.13265047       -2.63757665       -1.79306279
 C           -3.78515441        0.36575129       -1.12725411
 C           -3.74463586       -0.94706450       -1.57465178
 C           -2.34800793        2.20966100       -1.04736403
 C           -0.97219239        2.26200618       -1.26228841
 C           -3.18554799        1.42555172       -1.93485763
 C            0.90590666        1.38066362       -2.50426685
 C            1.37189852        0.59832410       -3.56700864
 C           -0.44363750        1.73459480       -2.44364482
 C            0.69260495       -1.45559505       -4.46072301
 C           -0.34581035       -2.35062734       -3.98478509
 C            0.42860922       -0.02557971       -4.47972274
 C           -2.62484126       -2.30859447       -3.12073759
 C           -3.55807626       -1.20213944       -2.99010438
 C           -1.66769180       -1.96692675       -4.15542972
 C           -2.71226033        1.13866389       -3.20465080
 C           -1.30652610        1.37831070       -3.48659119
 C           -0.88872993        0.39931486       -4.47611996
 C           -3.08786482       -0.11785526       -3.83109782
 C           -1.94272544       -0.60053871       -4.57979753
