   70
C70 / DATE: 7/ 1/2024 / Origin: Program Fullerene / C70 from database
 C            1.59023669        0.18324053        5.00083932
 C            0.79083153       -1.02691866        5.04668781
 C            1.51522285       -2.05744577        4.32893457
 C            2.67675569       -0.03809787        4.05846605
 C            2.67187702       -1.43425227        3.69892074
 C            2.55110661        0.94265358        2.99884186
 C            0.75406406        1.24351872        4.46693510
 C            1.44511563        1.81785318        3.33810694
 C           -0.55539813       -0.69139640        4.61562059
 C           -0.57368067        0.71490810        4.24008198
 C           -1.26052169       -1.59680427        3.83357791
 C            0.81617538       -2.82320587        3.31061624
 C           -0.56020817       -2.69994814        3.18227930
 C            2.64481513       -1.77990390        2.29229523
 C            1.63248044       -2.80082900        2.11238090
 C            2.69422103        0.56566203        1.65870808
 C            2.76218100       -0.79233410        1.30954761
 C            2.26566031        1.48090884        0.69246546
 C            0.69581353        2.30389587        2.28286892
 C            1.35914640        2.46996264        1.08118987
 C           -1.25232776        1.09855842        3.08284055
 C           -0.68431175        2.06638114        2.23842320
 C           -2.23550218       -1.08709122        2.88760728
 C           -2.26931461        0.27445737        2.59793662
 C           -1.16104169       -2.89146547        1.87233683
 C           -2.32685148       -2.03781128        1.79172441
 C            1.03410348       -2.88225013        0.86334804
 C           -0.35575199       -3.01374685        0.74656472
 C            2.45342449       -1.16228633       -0.00308604
 C            1.73509544       -2.34362837       -0.20721157
 C            2.37400678        1.14857570       -0.65834042
 C            2.48033148       -0.19735910       -1.01135191
 C            2.01336147        2.09289353       -1.62235062
 C            0.72202713        3.22539091        0.11828601
 C            1.15135487        3.12383756       -1.25908244
 C           -1.39694139        2.50612837        1.11308664
 C           -0.72915988        3.24805300        0.13652768
 C           -2.99091948        0.67732381        1.48320130
 C           -2.59148770        1.87769171        0.77332469
 C           -2.72890146       -1.57272685        0.54555705
 C           -3.33957473       -0.32164421        0.48670773
 C           -0.93964921       -2.82556548       -0.50957874
 C           -2.13628333       -2.09858907       -0.60768581
 C            1.28791909       -2.65629631       -1.47797256
 C           -0.11948755       -2.96713691       -1.62791056
 C            2.27492538       -0.58744311       -2.33710577
 C            1.67715237       -1.81893431       -2.59204368
 C            2.12961286        1.76974671       -2.96985073
 C            2.28033646        0.37572418       -3.34071862
 C            1.20370188        2.38097322       -3.91026616
 C           -0.01085181        3.41164617       -2.08360797
 C           -1.17702512        3.18949358       -1.24763303
 C           -0.02268113        2.95402494       -3.38932643
 C           -2.94206253        1.69824131       -0.63162645
 C           -3.47881079        0.35695865       -0.78850599
 C           -2.11964060        2.23630297       -1.61871719
 C           -2.58588130       -1.65226464       -1.85141564
 C           -3.21042098       -0.34308941       -1.95106861
 C           -0.54632670       -2.47769048       -2.92671344
 C            0.62232727       -1.91876253       -3.58950368
 C           -1.77146448       -1.84235640       -3.04054693
 C            1.48887983        0.14438234       -4.53995828
 C            0.84342255        1.39051415       -4.90643253
 C            0.47182192       -0.89008645       -4.50895195
 C           -1.11673112        2.09556617       -3.81502172
 C           -2.02193772        1.61240840       -2.86855010
 C           -2.59251784        0.35309898       -3.06381055
 C           -1.88897696       -0.64335535       -3.85673314
 C           -0.59133385        1.18264943       -4.81871763
 C           -0.82553030       -0.24090970       -4.65544035
