   70
C70 / DATE: 7/ 1/2024 / Origin: Program Fullerene / C70 from database
 C            1.20445677        0.00841018        4.37734094
 C            2.50434360       -0.34865698        3.86130736
 C            2.45202484       -1.75008261        3.47096155
 C            0.37100484       -1.18126483        4.31624082
 C            1.05568045       -2.14844649        3.49012104
 C           -0.94595604       -0.75851561        3.91140175
 C            0.46749328        1.07608518        3.73043038
 C           -0.92596480        0.68615247        3.74861031
 C            0.96600584        1.67356934        2.57926013
 C            3.02639540        0.38649174        2.72946804
 C            2.25128545        1.36417094        2.10251804
 C            3.20062795       -1.88761072        2.23519313
 C            3.73591425       -0.57345258        1.90763031
 C            2.67032491       -2.67741920        1.22324425
 C            0.45450349       -2.58172235        2.30712804
 C            1.26868444       -3.07232057        1.28604645
 C           -1.62732992       -1.49575857        2.95727374
 C           -0.88307129       -2.25001312        2.02963723
 C           -2.84345716       -0.95606389        2.56651574
 C           -1.79811645        1.23924592        2.81324084
 C           -2.93565768        0.49360738        2.49637883
 C            0.07844644        2.37624780        1.76705667
 C           -1.30237074        2.15395269        1.87512403
 C            0.58761480        3.12323768        0.71175526
 C            2.64546018        1.81057005        0.83726065
 C            1.89473363        2.78198269        0.18722189
 C            3.97901481       -0.24579245        0.58246560
 C            3.54799219        1.05487612        0.09328814
 C            2.98350090       -2.36843262       -0.16165425
 C            3.69716662       -1.21762558       -0.46310521
 C            0.76263843       -3.12708324       -0.07285896
 C            1.82687051       -2.71516000       -0.96946927
 C           -1.39705876       -2.49035108        0.74325284
 C           -0.53125239       -2.69921105       -0.32703249
 C           -3.52203480       -1.50426055        1.41894365
 C           -2.73762630       -2.25960321        0.47070209
 C           -3.73752684        0.83500667        1.33360985
 C           -4.15354806       -0.40429111        0.70762937
 C           -2.16156058        2.65080214        0.89422097
 C           -3.34635932        1.89415179        0.53067067
 C           -0.26532168        3.47617552       -0.40814646
 C           -1.62088252        3.22493992       -0.32561070
 C            1.80419198        2.76814132       -1.26757338
 C            0.44484243        3.14568979       -1.62968249
 C            3.36725128        0.94022909       -1.34365857
 C            3.36362906       -0.47816699       -1.66583763
 C            2.46444164        1.77838987       -1.99759727
 C            1.49852800       -1.94348517       -2.07848338
 C            2.38399238       -0.95302347       -2.52764729
 C           -0.85837228       -2.21270856       -1.59866693
 C            0.17104329       -1.93774102       -2.51352854
 C           -3.11349952       -1.81088806       -0.85598944
 C           -3.90008213       -0.59454842       -0.70617605
 C           -2.18671609       -1.86454109       -1.89028126
 C           -3.35126513        1.74655653       -0.92081622
 C           -2.29799541        2.60362317       -1.45070691
 C           -3.59265061        0.50133264       -1.51109613
 C           -0.20032715        2.46286861       -2.65707301
 C           -1.57427539        2.18158360       -2.56325652
 C            1.91186162        1.34229921       -3.20287814
 C            1.96547658       -0.07754691       -3.52158289
 C            0.59791039        1.82026831       -3.60116415
 C           -0.12036040       -1.39286650       -3.75946747
 C            0.78710744       -0.40421557       -4.29720173
 C            0.03133443        0.82358455       -4.48661633
 C           -2.45644851       -1.06679049       -2.99511292
 C           -3.05139047        0.23966185       -2.76685564
 C           -2.15913469        1.21102038       -3.37355879
 C           -1.45853475       -0.92083163       -4.02927294
 C           -1.36764672        0.49556715       -4.35349120
