   70
C70 / DATE: 7/ 1/2024 / Origin: Program Fullerene / C70 from database
 C            1.36531333       -0.12839243        4.50495663
 C            2.61251261       -0.30535109        3.78599831
 C            2.53922369       -1.57468464        3.08429472
 C            0.50411737       -1.25851110        4.18729878
 C            1.18743548       -2.07797026        3.20479607
 C           -0.81080766       -0.73812450        3.85948402
 C            0.59412474        1.08380569        4.29635813
 C           -0.79427140        0.68897979        4.12743463
 C            1.11703777        2.11017455        3.51480730
 C            3.03026345        0.70496441        2.82857712
 C            2.35209297        1.91243518        2.76311372
 C            3.07128104       -1.37533126        1.75414864
 C            3.39378284        0.03004673        1.59307342
 C            2.46416745       -2.01219413        0.68669829
 C            0.50834481       -2.43526106        2.04487486
 C            1.22715028       -2.64483806        0.86302580
 C           -1.45635959       -1.20528134        2.71667671
 C           -0.86884578       -2.23338504        1.97698637
 C           -2.47995989       -0.43974906        2.14804288
 C           -1.65752225        1.50549383        3.41258005
 C           -2.64672339        0.88605263        2.54902300
 C            0.22498922        2.92433823        2.70296343
 C           -1.13680310        2.66581575        2.70017860
 C            2.19863279        2.56344757        1.47660791
 C            0.89461325        3.20561446        1.44512128
 C            3.13051035        0.63207428        0.35824599
 C            2.66799448        1.95430195        0.31564642
 C            2.79595145       -1.56730807       -0.57943034
 C            2.99015542       -0.19198304       -0.77041300
 C            2.42645442       -2.37535377       -1.63778231
 C            0.56256185       -3.16076123       -0.25914069
 C            1.20474137       -3.14414606       -1.49920479
 C           -1.56728666       -2.78285694        0.91461129
 C           -0.82663647       -3.27676719       -0.23407351
 C           -3.11496961       -0.87936275        0.98295840
 C           -2.75472092       -2.10588145        0.42744711
 C           -3.85665965        0.02895309        0.22662304
 C           -3.00781752        1.87991202        1.55822407
 C           -1.86995791        2.77444679        1.45041920
 C           -3.61981595        1.45153334        0.39661721
 C            0.18068794        3.20769603        0.24701299
 C           -1.17336313        2.85288680        0.24273411
 C            2.22015356        2.47770708       -0.89084299
 C            0.91339598        3.12042632       -0.93026863
 C            2.78366710        0.38448805       -2.03065300
 C            2.36911900        1.70861657       -2.10741449
 C            2.48744854       -1.85357995       -2.98239634
 C            2.62176218       -0.42409840       -3.15429143
 C            0.41750527       -2.91540517       -2.70128177
 C            1.28270063       -2.28036078       -3.67629557
 C           -1.59043903       -2.95279656       -1.43050941
 C           -2.82136923       -2.30885266       -1.01397876
 C           -0.91295159       -2.51945312       -2.56821868
 C           -4.02664513       -0.19269705       -1.19856154
 C           -3.37540556       -1.33099528       -1.81972380
 C           -3.10087539        1.93154843       -0.86934259
 C           -1.78612404        2.38988925       -0.93094428
 C           -3.57385260        1.01188792       -1.87964787
 C            0.25687974        2.71248925       -2.15609777
 C            1.25915036        2.06185161       -2.97957266
 C           -1.02994852        2.19073072       -2.09444504
 C            1.66677874       -0.02447199       -4.17418794
 C            0.77597222       -1.14934303       -4.41404626
 C            0.84965383        1.15438805       -3.94098589
 C           -1.42447803       -1.45524473       -3.33398592
 C           -2.61900859       -0.84148942       -2.95772241
 C           -2.65959155        0.61241287       -2.92283273
 C           -1.46849396        1.30822605       -3.09547096
 C           -0.57429181       -0.70380759       -4.14706169
 C           -0.54233164        0.73845487       -3.96683544
