   70
C70 / DATE: 7/ 1/2024 / Origin: Program Fullerene / C70 from database
 C            1.58112707        0.06388184        4.58889861
 C            0.76468235       -1.12953121        4.58691908
 C            1.24513912       -2.01253512        3.53396873
 C            2.56821153       -0.08562988        3.53778880
 C            2.27712940       -1.30039135        2.80393435
 C            2.57586389        1.15070904        2.79509300
 C            0.71841942        1.17395693        4.21614540
 C            1.37731930        1.88455004        3.14785636
 C           -0.61944876       -0.70057836        4.52377509
 C           -0.60112281        0.63962541        3.96029214
 C           -1.52226822       -1.60360435        4.00206123
 C            0.29309537       -2.73495370        2.82829302
 C           -0.98021411       -2.80406645        3.39528293
 C            0.43041154       -2.86693524        1.43903459
 C            2.20601553       -1.22315029        1.41577022
 C            1.26627043       -1.99313825        0.72962481
 C            2.86910541        1.10189947        1.44492931
 C            2.78034479       -0.12603216        0.77371798
 C            2.56297399        2.24113765        0.71548640
 C            0.62087644        2.37194295        2.08970179
 C            1.33931410        2.85982474        0.99971931
 C           -1.19168112        0.86708998        2.71296223
 C           -0.65469234        1.82926072        1.85031145
 C           -2.49270030       -1.12113480        3.04241196
 C           -2.15200379       -0.03247301        2.23746022
 C           -2.06524842       -3.38452943        2.64032845
 C           -3.03714543       -2.31398655        2.43343585
 C           -0.47841534       -3.65802336        0.74180485
 C           -1.76250164       -3.96069946        1.34995705
 C           -0.72563867       -3.38863460       -0.66352910
 C            1.10559116       -1.81535158       -0.65472936
 C            0.06124523       -2.45088184       -1.33227313
 C            2.82097885       -0.10594584       -0.61940102
 C            1.87886384       -0.86359931       -1.33210928
 C            3.09461851        2.30297363       -0.56113414
 C            3.36470950        1.03407580       -1.20463047
 C            2.49845004        3.17252934       -1.55192799
 C            0.61768695        3.46923257       -0.01618808
 C            1.22458703        3.67352117       -1.31963160
 C           -1.25761159        2.03697520        0.60715021
 C           -0.75617944        3.04699348       -0.21030524
 C           -2.51560012       -0.01548091        0.87920077
 C           -2.06772220        1.03573367        0.05868028
 C           -3.34986154       -2.28435497        1.02916008
 C           -2.78253673       -3.48508960        0.44270602
 C           -2.17048606       -3.35882842       -0.86038786
 C           -3.22473064       -1.09440382        0.31899386
 C           -2.67571235       -2.37596104       -1.68809072
 C           -3.28911038       -1.20835719       -1.06192610
 C           -0.43099357       -1.88490926       -2.51102810
 C           -1.81038293       -1.85618311       -2.71590697
 C            1.55900800       -0.53354585       -2.66076645
 C            0.34789139       -0.96697479       -3.21355973
 C            3.25233649        1.23216540       -2.62907800
 C            2.83461435        2.61193567       -2.84787219
 C            2.34627950        0.38246043       -3.36330298
 C            1.83395911        2.60082942       -3.89466651
 C            1.73265919        1.23026693       -4.36793258
 C            0.17703115        3.51358500       -2.31740608
 C           -1.01290439        3.01527480       -1.63587387
 C            0.48682737        3.05748783       -3.59487815
 C           -2.36306496        1.04378583       -1.31608987
 C           -2.97448523       -0.06518258       -1.88929960
 C           -2.41821894       -0.60722455       -3.11426479
 C           -1.73051644        1.95382459       -2.17067131
 C           -0.30025269       -0.17713124       -4.16936561
 C            0.35125161        0.99667642       -4.70893796
 C           -0.42496992        2.14559223       -4.25463916
 C           -1.66315383        0.22908082       -3.90437383
 C           -1.56331407        1.62055446       -3.51667857
