   70
C70 / DATE: 7/ 1/2024 / Origin: Program Fullerene / C70 from database
 C            1.28261777       -0.07521687        4.52979255
 C            2.47533973       -0.30605298        3.74986993
 C            2.47259298       -1.70068178        3.33720449
 C            0.46724289       -1.28075171        4.47395727
 C            1.19016426       -2.27425657        3.70204215
 C           -0.86378611       -0.88441926        4.04100882
 C            0.42696920        1.03413014        4.16551400
 C           -0.94174442        0.55038776        4.22647252
 C            0.78834624        1.88736709        3.12153738
 C            2.69838521        0.50278051        2.56534275
 C            1.78845698        1.50036100        2.21613170
 C            2.89463803       -1.74692579        1.94743170
 C            3.18568752       -0.38706669        1.53212095
 C            2.23369401       -2.58392051        1.05045316
 C            0.49963713       -3.01397614        2.75333003
 C            1.15351328       -3.34868754        1.49965207
 C           -1.40151304       -1.45460094        2.88808424
 C           -0.87647406       -2.65795182        2.43028466
 C           -2.20236266       -0.68018166        2.04157370
 C           -1.91041615        1.25746122        3.53610113
 C           -2.62646532        0.58161574        2.46484895
 C           -0.15465126        2.82935894        2.72793441
 C           -1.55096662        2.57304992        3.04127371
 C           -0.10195538        3.38379360        1.39037118
 C            1.73067087        1.91987257        0.87965299
 C            0.91440084        2.99853366        0.52482350
 C            2.96018488       -0.05598699        0.20805291
 C            2.40775924        1.18544849       -0.10846427
 C            2.35844103       -2.32151818       -0.31686558
 C            2.87344287       -1.08535567       -0.72097444
 C            1.62045072       -3.08742652       -1.21778120
 C            0.09334413       -3.70199310        0.57216019
 C           -1.12204244       -3.07224825        1.06171553
 C            0.36010889       -3.65854477       -0.78466628
 C           -2.37077118       -1.04098137        0.69753598
 C           -1.84174026       -2.24223344        0.20989202
 C           -2.95713323       -0.13221957       -0.18635750
 C           -2.97697418        1.58354490        1.47052017
 C           -2.33126659        2.82200574        1.84544239
 C           -1.46273087        3.45026948        0.87395259
 C           -2.96350213        1.22243690        0.13284927
 C           -1.65952062        3.17104675       -0.47327855
 C           -2.55845499        2.15758256       -0.82773192
 C            0.75090533        3.32092129       -0.81737950
 C           -0.60294489        3.46024482       -1.32942597
 C            2.31779195        1.55033934       -1.45516790
 C            1.53396341        2.63712223       -1.82367349
 C            2.91640785       -0.75039009       -2.06811386
 C            2.72039010        0.64132456       -2.43432445
 C            1.43920491       -2.62446816       -2.58226515
 C            2.21235475       -1.57152430       -3.03865407
 C           -0.66340548       -3.15427948       -1.68351429
 C           -1.75414826       -2.45798538       -1.16832764
 C            0.00890855       -2.63894959       -2.86565970
 C           -3.19341678       -0.51004491       -1.50024225
 C           -2.49384282       -1.66168507       -2.03292867
 C           -2.73208687        1.84576627       -2.17416494
 C           -3.20430370        0.51838077       -2.52458456
 C           -0.62277556        2.97638884       -2.69829030
 C            0.73284460        2.57704243       -3.04013159
 C           -1.70040533        2.21489478       -3.13080405
 C            2.07855568        0.66462915       -3.73731889
 C            1.66088419       -0.69179836       -4.05022206
 C            0.94095346        1.54169247       -3.94126266
 C           -0.58025469       -1.59187569       -3.57447882
 C           -1.91183539       -1.27704056       -3.31115833
 C           -2.41862943        0.04068786       -3.65000974
 C           -1.47810859        1.08147457       -4.01728683
 C            0.22398278       -0.67697795       -4.25840124
 C           -0.18260701        0.71826129       -4.36502029
