   70
C70 / DATE: 7/ 1/2024 / Origin: Program Fullerene / C70 from database
 C            1.56941564       -0.25958653        5.08019506
 C            0.71703843       -1.42679289        5.07828617
 C            1.20967086       -2.32384892        4.04619191
 C            2.57546840       -0.45360622        4.04925642
 C            2.23257292       -1.63578278        3.29147399
 C            2.66653501        0.78472386        3.32704977
 C            0.75695181        0.87513839        4.67310027
 C            1.53215550        1.61364301        3.71235660
 C           -0.61050584       -0.99739446        4.67003466
 C           -0.53136847        0.38108708        4.24325878
 C            0.05893674       -2.78595995        3.32120053
 C           -1.07652862       -1.95853556        3.70650978
 C            0.18898781       -3.05320386        1.96781952
 C            2.08359317       -1.52470954        1.90378987
 C            1.17734932       -2.36574571        1.23615831
 C            2.96281672        0.74507944        1.97404211
 C            2.60996948       -0.40406575        1.23936779
 C            2.85454970        1.97066173        1.34374269
 C            0.87163608        2.26955788        2.68177250
 C            1.71200420        2.78867499        1.71230480
 C           -0.97707244        0.70867238        2.95992942
 C           -0.38179652        1.78105351        2.27108450
 C           -1.90076993       -1.52679452        2.67556373
 C           -1.81636682       -0.18326262        2.26790064
 C           -1.01040822       -3.32176340        1.33507139
 C           -2.13795058       -2.48320815        1.70366961
 C           -1.02928689       -3.46071769       -0.09424638
 C            1.06063733       -2.28011385       -0.16129359
 C            0.07634798       -3.03594718       -0.81513308
 C            2.49504202       -0.31597085       -0.15808183
 C            1.75307020       -1.27880414       -0.86098762
 C            2.98339592        2.03398830       -0.08524611
 C            2.91645475        0.85306347       -0.80876709
 C            1.15013869        3.31078962        0.49216987
 C            2.18149397        3.16609263       -0.51402906
 C           -0.88646520        2.13657365        1.01133459
 C           -0.15322032        2.97828886        0.15998976
 C           -2.30665775        0.19194160        1.00817304
 C           -2.00312318        1.46197583        0.51686455
 C           -2.80443640       -2.10431620        0.48331257
 C           -2.35108199       -3.04051990       -0.52419199
 C           -2.88398987       -0.76087619        0.15390529
 C           -2.52392926       -2.70637346       -1.85394049
 C           -0.06258692       -2.95120546       -2.19337681
 C           -1.40735137       -2.93635036       -2.75222232
 C            1.65806313       -1.20714200       -2.25986408
 C            0.72921634       -1.99349246       -2.92950518
 C            2.79557269        0.96254991       -2.18697579
 C            2.12544963       -0.08160978       -2.92638519
 C            1.81265977        3.23186006       -1.84422073
 C            2.37297948        2.24017596       -2.74375453
 C           -0.56172030        3.15744030       -1.16306038
 C            0.39829488        3.34940298       -2.16497165
 C           -2.59032732        1.89275006       -0.66798685
 C           -1.85783526        2.81127927       -1.51970012
 C           -3.17684057       -0.42345712       -1.16891836
 C           -3.06588277       -1.39420895       -2.17273182
 C           -3.24103166        0.91728169       -1.52280102
 C           -1.45843234       -1.92408614       -3.79004203
 C           -0.12843888       -1.36914150       -3.92965974
 C           -2.55500847       -1.02726964       -3.48694314
 C            1.27122350        0.54745678       -3.92652892
 C            1.39481325        1.98295183       -3.78365693
 C            0.20631050        2.75389540       -3.48076380
 C            0.02179727       -0.00907588       -4.17731455
 C           -2.14089355        2.46623339       -2.90191670
 C           -2.99633057        1.29488015       -2.90384046
 C           -2.41483135        0.31460711       -3.80161309
 C           -1.02874610        2.21261948       -3.79851403
 C           -1.11139736        0.81854899       -4.22369506
