   70
C70 / DATE: 7/ 1/2024 / Origin: Program Fullerene / C70 from database
 C            1.54990245        0.06126622        4.44547754
 C            0.75184583       -1.12913039        4.21731810
 C            1.53713934       -2.02424650        3.40570119
 C            2.66794626        0.02501406        3.51687038
 C            2.68088616       -1.27831127        2.90043785
 C            2.57203685        1.18165136        2.65744212
 C            0.73370791        1.20708901        4.09908062
 C            1.47029207        1.99829042        3.13366043
 C           -0.53538859       -0.72162225        3.70547737
 C           -0.58026771        0.73079913        3.71050086
 C           -1.05597973       -1.39184559        2.60733888
 C            0.89013700       -2.85969190        2.50754356
 C           -0.42481271       -2.54679761        2.10961951
 C            1.72622087       -3.47382287        1.58997206
 C            2.97811815       -1.39229189        1.54433098
 C            2.76144031       -2.65156628        0.98528474
 C            2.72439226        1.02916136        1.28174165
 C            2.88216878       -0.25366450        0.72067512
 C            2.30443601        2.08412518        0.46993933
 C            0.73996847        2.69611388        2.18411126
 C            1.35969713        2.98705640        0.97148512
 C           -1.21128069        1.38624051        2.65763197
 C           -0.65156425        2.57795578        2.20359521
 C           -2.00689107       -0.73742739        1.83186150
 C           -2.02968419        0.65948286        1.78792186
 C           -2.72365619       -1.46775036        0.90446842
 C           -1.00698990       -3.22738569        1.02375726
 C           -2.18970252       -2.74251808        0.46009491
 C            1.14857032       -4.29956735        0.56095472
 C           -0.26887286       -4.17588438        0.31192443
 C            2.61354868       -2.78535266       -0.44868353
 C            1.83997035       -3.99042610       -0.67982754
 C            2.76646422       -0.41472953       -0.66887694
 C            2.35963829       -1.64126077       -1.19158629
 C            2.54433751        2.00959747       -0.89549444
 C            2.72621261        0.70300412       -1.49296140
 C            1.77203988        2.82292864       -1.81994584
 C            0.72557525        3.88726364        0.12069169
 C            0.88813694        3.76611227       -1.31761352
 C           -1.38849328        3.34598054        1.31483155
 C           -0.66694282        4.19763284        0.38586061
 C           -2.64562809        1.32312285        0.71660112
 C           -2.46348219        2.70063482        0.58041754
 C           -3.29711972       -0.79089177       -0.24128704
 C           -3.22450892        0.59536420       -0.32997705
 C           -2.39481003       -2.82956853       -0.98104286
 C           -2.97190062       -1.57439921       -1.42011341
 C           -0.43821576       -4.27123520       -1.12701790
 C            0.85298953       -3.98981435       -1.73441917
 C           -1.42067385       -3.41984890       -1.76870993
 C            1.48702889       -1.67433930       -2.29150642
 C            0.69671032       -2.79445521       -2.53511286
 C           -0.72295027       -2.59601585       -2.74520589
 C            1.90382585        0.64573537       -2.68605845
 C            1.37636735        1.97613910       -2.93426661
 C            1.10089998       -0.47289899       -2.88139000
 C            0.11441688        2.11048721       -3.49532409
 C           -0.41817932        3.94201581       -1.93602617
 C           -1.38154058        4.19423423       -0.87651740
 C           -2.53104466        3.31485925       -0.73588283
 C           -0.79183348        3.14023988       -3.00839923
 C           -3.31304606        1.16315557       -1.60223043
 C           -2.92259625        2.54482503       -1.81960847
 C           -2.14006614        2.59673787       -3.04559269
 C           -2.43473968       -0.91756048       -2.52180268
 C           -1.17078817       -1.30083042       -2.98687904
 C           -0.22535268       -0.31807833       -3.30250507
 C           -0.66729415        0.91603466       -3.76789469
 C           -2.86678157        0.38392962       -2.74789217
 C           -2.06398999        1.25094875       -3.58696937
