   70
C70 / DATE: 7/ 1/2024 / Origin: Program Fullerene / C70 from database
 C            1.66942980       -0.32758005        4.87894531
 C            0.80372762       -1.49229064        4.86980188
 C            1.26502595       -2.37277630        3.81439315
 C            2.62521957       -0.47253834        3.79469325
 C            2.37161156       -1.73394037        3.12886084
 C            2.57608650        0.73567172        2.99791648
 C            0.85117955        0.83130812        4.57727155
 C            1.50010907        1.57036820        3.50461397
 C           -0.53668539       -1.05540472        4.51118519
 C           -0.51247798        0.38153284        4.35649032
 C            0.11154867       -2.73763729        3.02146893
 C           -0.98248899       -1.85286625        3.38510292
 C            0.29806492       -2.97328014        1.67325707
 C            2.37209614       -1.76134796        1.73669320
 C            1.53217005       -2.66462104        1.09101897
 C            2.70931303        0.62955032        1.62317026
 C            2.79498443       -0.63664595        1.02881984
 C            2.27548746        1.69993617        0.85154276
 C            0.68416151        2.22333618        2.58079065
 C            1.16264788        2.42940635        1.27998865
 C           -1.19471104        0.94315369        3.28801275
 C           -0.69253978        2.12862435        2.76813899
 C           -1.69954248       -1.23347214        2.35607929
 C           -1.97494669        0.13548243        2.44904809
 C           -0.82430615       -2.89847651        0.86749588
 C           -1.71498669       -1.84588580        1.09772178
 C           -0.70100302       -3.42952157       -0.40278603
 C            1.64861134       -2.81519072       -0.29069962
 C            0.64511173       -3.55149493       -0.92125432
 C            2.86189530       -0.71474517       -0.36373783
 C            2.36029893       -1.84756869       -1.01784711
 C            2.64231782        1.71883334       -0.48221893
 C            3.05876100        0.46574863       -1.08183099
 C            1.80393867        2.41140565       -1.43937022
 C            0.31698864        3.03887249        0.34219555
 C            0.56095171        2.88460263       -1.03012816
 C           -1.51921581        2.84543197        1.92805196
 C           -0.92066881        3.49676681        0.78282057
 C           -2.67730017        0.76538495        1.41714696
 C           -2.69195110        2.16229421        1.42772624
 C           -2.27256833       -1.16206606        0.01269397
 C           -2.88187452        0.07745967        0.21193364
 C           -1.51191618       -2.89300327       -1.47152114
 C           -2.11933577       -1.65976133       -1.28678044
 C            0.54920652       -3.57655642       -2.36369552
 C           -0.79942012       -3.14817434       -2.71023807
 C            2.37854262       -1.89001177       -2.41536342
 C            1.48313534       -2.78274905       -3.12691826
 C            2.73606058        0.52644732       -2.49592391
 C            1.93953114        1.72599740       -2.71408362
 C            2.42459391       -0.64707994       -3.16657670
 C            0.85794948        1.69017375       -3.57973512
 C           -0.47756973        3.00495484       -1.96814381
 C           -0.37490792        2.35917213       -3.20059013
 C           -1.98858659        3.71008710       -0.17003943
 C           -3.12386684        2.90225182        0.26192032
 C           -1.74548853        3.41232850       -1.56173341
 C           -3.45958583        0.72296141       -0.88370301
 C           -3.60401405        2.16488164       -0.88141748
 C           -2.89786603        2.67096294       -2.04357786
 C           -2.28010441       -0.80829442       -2.38186671
 C           -1.48716069        1.54132632       -3.66469325
 C           -3.04868409        0.33962592       -2.22426719
 C           -2.66554470        1.55206682       -2.93536388
 C           -0.68739535       -2.07610836       -3.67733585
 C            0.71279989       -1.97949479       -4.06042476
 C            1.32771137       -0.66451466       -4.12502910
 C            0.49796191        0.44431778       -4.23879264
 C           -1.40572578       -0.90227936       -3.47202457
 C           -0.93479204        0.26465196       -4.06729865
