   70
C70 / DATE: 7/ 1/2024 / Origin: Program Fullerene / C70 from database
 C            1.61559554       -0.02074735        4.55237570
 C            0.80881679       -1.21790121        4.44366388
 C            1.54197170       -2.15495290        3.61512111
 C            2.66594714       -0.11855129        3.55215671
 C            2.48913055       -1.36684298        2.84247269
 C            2.64151160        1.10204569        2.78486039
 C            0.77741900        1.10693505        4.19174690
 C            1.50686589        1.89072766        3.22260125
 C           -0.52697212       -0.83514266        4.01172862
 C           -0.52218457        0.60335109        3.80437696
 C           -1.16890380       -1.66171105        3.08876894
 C            0.80070399       -3.10434888        2.94307791
 C           -0.64330949       -2.94158443        2.92640946
 C            1.15646370       -3.39887477        1.57230253
 C            2.38567730       -1.34337703        1.44710597
 C            1.71647460       -2.38426922        0.79439185
 C            2.86157500        1.04360033        1.41762949
 C            2.71418758       -0.18006165        0.74231083
 C            2.60709393        2.20955959        0.70828635
 C            0.79826822        2.55085035        2.22847621
 C            1.53271077        3.00231918        1.13915586
 C           -1.10647978        1.10958616        2.65422477
 C           -0.55216110        2.23194461        2.02109565
 C           -1.90813747       -1.08233412        2.04282701
 C           -2.00953699        0.31120132        1.96485469
 C           -2.43431832       -1.88112196        1.01013457
 C           -1.12589543       -3.77607617        1.85340602
 C            0.03762775       -4.15173083        1.05724745
 C           -2.10298203       -3.23235447        0.93811280
 C           -0.32646869       -3.97638854       -0.32467704
 C           -1.76745828       -3.79395518       -0.35203256
 C            1.33596275       -2.23918524       -0.55112270
 C            0.45743331       -3.16641896       -1.13984650
 C            2.59498345       -0.17271623       -0.65141342
 C            1.77135100       -1.11770682       -1.27457311
 C            3.00970786        2.23244176       -0.61728272
 C            2.96893831        0.97969657       -1.34516197
 C            2.55512229        3.29294409       -1.49253993
 C            0.88589233        3.85394934        0.25679676
 C            1.46282238        4.12567287       -1.04395767
 C           -1.22085054        2.79460409        0.92294937
 C           -0.54740610        3.69989609        0.10019000
 C           -2.78425719        0.89604073        0.97854228
 C           -2.36942152        2.17604558        0.43085985
 C           -3.01873843       -1.28241854       -0.11257009
 C           -3.28644274        0.07969496       -0.10661903
 C           -2.31777003       -3.21744978       -1.48116217
 C           -3.03215618       -1.95678363       -1.33531686
 C           -0.02833351       -2.93598782       -2.42059433
 C           -1.45836872       -3.08491245       -2.64219744
 C            1.29632282       -0.87963738       -2.57281216
 C            0.40723988       -1.77135862       -3.15885465
 C            2.39091651        1.25161156       -2.64689091
 C            2.16991506        2.68714307       -2.75344644
 C            1.42854289        0.38673676       -3.14141785
 C            0.39680769        4.04119265       -2.02764434
 C           -0.83571876        3.71926301       -1.32687244
 C            0.84282899        3.17078290       -3.09833827
 C           -2.60559943        2.14483979       -1.00512669
 C           -3.15086405        0.83873533       -1.34138153
 C           -1.69811716        2.76431506       -1.85719943
 C           -2.84973809       -1.19949553       -2.56622610
 C           -1.91422057       -1.93637488       -3.39678803
 C           -0.74120532       -1.24631161       -3.88480964
 C           -2.74456972        0.18875766       -2.50316744
 C            0.37352365        0.91129541       -3.88679015
 C           -0.06173874        2.27315478       -3.64277759
 C           -1.40881928        2.18431270       -3.09227819
 C           -0.82776168        0.12260658       -4.06143226
 C           -1.90944637        0.85122979       -3.40493918
