   70
C70 / DATE: 7/ 1/2024 / Origin: Program Fullerene / C70 from database
 C            1.26271918       -0.02964528        4.23736317
 C            2.52252282       -0.36694499        3.61459303
 C            2.47739270       -1.77555759        3.26527215
 C            0.43776686       -1.22797874        4.24679511
 C            1.10972818       -2.23010821        3.45316426
 C           -0.90017666       -0.83933606        3.86623224
 C            0.46767242        1.03813089        3.66299750
 C           -0.91249306        0.60338231        3.67499501
 C            0.92372972        1.72998379        2.55131937
 C            2.92465204        0.36023381        2.42862181
 C            2.16498187        1.42729308        1.97092163
 C            3.08559565       -1.92683525        1.95561976
 C            3.40533881       -0.59739677        1.45303461
 C            2.53694282       -2.85127239        1.08306065
 C            0.44014860       -2.80815874        2.37697624
 C            1.20254745       -3.37012655        1.35162290
 C           -1.61323757       -1.62350975        2.96682105
 C           -0.92815625       -2.56240492        2.17620554
 C           -2.81418529       -1.08439324        2.51071249
 C           -1.80653825        1.12733518        2.74229551
 C           -2.94087890        0.36389639        2.48858375
 C           -0.00524457        2.46119667        1.81492819
 C           -1.33564336        2.01969854        1.75997410
 C            0.47778059        3.33409574        0.84831404
 C            2.42577012        1.89714976        0.69040569
 C            1.80268904        3.07870243        0.31801564
 C            3.22897052       -0.31333694        0.09672699
 C            2.85639032        0.98551769       -0.28808466
 C            2.62807061       -2.60334390       -0.34164937
 C            3.08520863       -1.37228611       -0.80561314
 C            0.58894237       -3.69377091        0.07498719
 C            1.45826631       -3.18970601       -0.97368746
 C           -1.56625389       -3.13509330        1.07376700
 C           -0.78027180       -3.57112818       -0.06588477
 C           -3.45077634       -1.60343261        1.31356441
 C           -2.77794198       -2.53815587        0.54679831
 C           -3.81366988        0.71974639        1.39784448
 C           -4.10978006       -0.49385444        0.64957389
 C           -2.13308797        2.34294026        0.64519950
 C           -3.36245288        1.71566959        0.45336590
 C           -0.37267407        3.70565000       -0.26199983
 C           -1.57866314        3.04072982       -0.43030348
 C            1.82467665        3.49135528       -1.06428263
 C            0.48533909        3.93601442       -1.41373445
 C            2.77079724        1.30530096       -1.65149796
 C            2.25115522        2.53380323       -2.05832465
 C            2.88276084       -1.09041456       -2.15044245
 C            2.86956455        0.28805057       -2.59389426
 C            0.92252095       -2.54467731       -2.08431249
 C            1.80377784       -1.78123433       -2.84164699
 C           -1.31119704       -2.91266412       -1.24825954
 C           -2.56261894       -2.28202033       -0.87263790
 C           -0.44796238       -2.24788906       -2.11365050
 C           -3.80342528       -0.22530344       -0.74371614
 C           -3.69210810        1.21675397       -0.86817582
 C           -2.89128379       -1.04149282       -1.41305826
 C           -2.06049372        2.81149848       -1.72128197
 C           -3.00482831        1.73275276       -1.95056362
 C            0.13463759        3.33463525       -2.68763577
 C            1.28852173        2.57933333       -3.14997542
 C           -1.14113279        2.81106719       -2.85009277
 C            2.03917802        0.34645140       -3.78586044
 C            1.28221810       -0.89276399       -3.85544224
 C            1.10300674        1.44612181       -3.93176050
 C           -0.91997654       -1.13713621       -2.82480717
 C           -2.10060369       -0.49690993       -2.42887479
 C           -2.35644245        0.80603995       -2.85851168
 C           -1.32711246        1.55342249       -3.56160571
 C           -0.12182801       -0.55469096       -3.80734406
 C           -0.22884280        0.87102036       -4.06206024
