   70
C70 / DATE: 7/ 1/2024 / Origin: Program Fullerene / C70 from database
 C            1.29565069       -0.16639043        4.08827624
 C            2.41296703       -0.34813354        3.17866112
 C            2.32686980       -1.69736253        2.64126311
 C            0.43797322       -1.33569049        3.98491439
 C            1.05205746       -2.25900971        3.06518663
 C           -0.90109529       -0.88542120        3.70052382
 C            0.46523517        1.01380029        3.94797557
 C           -0.89451440        0.56955796        3.68265145
 C            0.96623178        2.09773689        3.24766227
 C            2.79061606        0.69819437        2.34325348
 C            2.21794401        1.95837129        2.51298555
 C            3.46190141        0.40427898        1.16288422
 C            2.78354479       -1.96120910        1.34976697
 C            3.42402560       -0.95075145        0.63231982
 C            2.21513355       -3.02483429        0.64990433
 C            0.27000348       -2.91183459        2.12167421
 C            0.96578608       -3.59211248        1.13230743
 C           -1.66395654       -1.54983452        2.74787396
 C           -1.05422255       -2.48421097        1.88281042
 C           -2.82312961       -0.89744703        2.34837620
 C           -1.68137075        1.22889129        2.73533841
 C           -2.79546908        0.55314484        2.24262906
 C            0.06356113        2.85957114        2.40961049
 C           -1.12946347        2.27656970        1.98720419
 C            2.17269023        2.89321090        1.39662222
 C            0.88627833        3.57898058        1.45698091
 C            3.39761076        1.32587973        0.03940287
 C            2.71546888        2.53318624        0.16171047
 C            3.22588643       -0.85852475       -0.80805651
 C            3.23557872        0.54054086       -1.17477319
 C            2.11791002       -2.95070390       -0.79875269
 C            2.33894262       -1.72932409       -1.42487730
 C            0.25665263       -4.12978254       -0.00124479
 C            0.99835931       -3.76893134       -1.19966592
 C           -1.76999366       -2.99081784        0.77599423
 C           -1.11869352       -3.73961901       -0.19641808
 C           -3.58498672       -1.40945321        1.23766803
 C           -2.98294781       -2.42237350        0.40548193
 C           -3.30732859        0.89617469        0.93045472
 C           -3.93941556       -0.28361863        0.38789088
 C           -1.60965144        2.54782338        0.69955538
 C           -2.52524043        1.68818742        0.10478773
 C            0.30569215        4.03109040        0.28514014
 C           -1.00909166        3.52725894       -0.07931844
 C            2.25371237        3.15488590       -0.99698728
 C            1.11524273        4.05169662       -0.91428490
 C            2.37466494        0.99624496       -2.16073037
 C            2.10383427        2.36388149       -2.20973558
 C            1.41680092       -1.23415988       -2.36353321
 C            1.53552471        0.09316798       -2.82172658
 C            0.06091130       -3.22520505       -2.15000466
 C           -1.27612051       -3.36507210       -1.59354197
 C            0.37242108       -2.05773738       -2.83053596
 C           -3.18125720       -2.03030489       -0.98212096
 C           -3.64570266       -0.65022302       -0.97734360
 C           -2.25496484       -2.43352537       -1.94729025
 C           -2.45103673        1.43317834       -1.27449480
 C           -3.01875306        0.26316580       -1.81366244
 C           -1.05888659        3.39500412       -1.52410627
 C            0.24475887        3.77761162       -2.04240113
 C            0.93522752        2.85464033       -2.92387646
 C           -1.70370281        2.29700969       -2.09308242
 C            0.64766228        0.59068549       -3.77343187
 C            0.17040698        1.95301925       -3.64156352
 C           -1.24734955        1.85503895       -3.33476251
 C           -0.66143995       -1.50465095       -3.56898467
 C           -2.01232135       -1.59291202       -3.03695837
 C           -2.54145081       -0.23969313       -3.01483961
 C           -0.49863222       -0.19917477       -4.15906078
 C           -1.68954994        0.57836924       -3.84557574
