   70
C70 / DATE: 7/ 1/2024 / Origin: Program Fullerene / C70 from database
 C            1.32804696       -0.04201876        4.72710455
 C            2.50228418       -0.08257550        3.87942820
 C            2.52947396       -1.38382346        3.23663315
 C            0.49423776       -1.18434376        4.38212157
 C            1.23226600       -1.99953618        3.43812854
 C           -0.80666052       -0.68080044        3.98337157
 C            0.48935332        1.13515587        4.67930051
 C           -0.87302490        0.69554477        4.41557575
 C            0.78553480        2.17224815        3.70652576
 C            2.65902155        0.91899249        2.83668350
 C            1.71429175        1.93241323        2.69005573
 C            2.98654712       -1.19591947        1.86743142
 C            3.14175655        0.23314220        1.65464284
 C            2.39275583       -1.95359457        0.85617179
 C            0.57951363       -2.48264067        2.31432804
 C            1.35923599       -2.81950181        1.21553512
 C           -1.29393268       -1.02497308        2.72502912
 C           -0.75873153       -2.14297156        2.08959236
 C           -2.02697002       -0.10234206        1.96868006
 C           -1.46486802        1.66506447        3.52208458
 C           -0.49834362        2.74206179        3.35859446
 C           -2.16772307        1.22665905        2.40236547
 C           -0.58382957        3.52163073        2.21892703
 C            1.51122028        2.50105903        1.42796475
 C            0.51564514        3.46491063        1.26657013
 C            2.82497914        0.73633565        0.40458371
 C            2.10012089        1.92650388        0.29365873
 C            2.43940164       -1.46834960       -0.45710651
 C            2.83441711       -0.14489323       -0.66964683
 C            1.77628887       -2.17253542       -1.47031426
 C            0.75652053       -3.58204543        0.23290032
 C            1.14812508       -3.36744661       -1.14364903
 C           -1.36945751       -2.62476330        0.93310547
 C           -0.69036151       -3.62795609        0.23936828
 C           -2.45727244       -0.47602194        0.68880069
 C           -2.27712734       -1.79599073        0.25717551
 C           -2.84115249        0.49672454       -0.24163541
 C           -2.56379565        2.20142192        1.49408656
 C           -1.81090629        3.44341055        1.45125965
 C           -2.86979160        1.83112606        0.12897375
 C           -0.03602693        3.70196641       -0.05656027
 C           -1.48002864        3.71501245        0.06709008
 C           -2.23900580        2.79485556       -0.75556399
 C            1.72752161        2.36743853       -0.98096852
 C            0.51372734        3.03741135       -1.14289066
 C            2.79135098        0.38999747       -1.94605837
 C            2.30343649        1.75013851       -2.09081023
 C            1.51250829       -1.55362742       -2.69898342
 C            2.22561810       -0.40048791       -3.02104656
 C            0.39578264       -1.93207543       -3.46827184
 C            0.05354740       -3.84038666       -1.96348993
 C           -1.10349936       -4.01027970       -1.09258816
 C           -0.35916560       -3.04028418       -3.09406658
 C           -2.75684390       -2.15518443       -1.00594960
 C           -2.21773706       -3.31520465       -1.68945867
 C           -1.80333779       -2.89170554       -3.01453036
 C           -2.76342876        0.20449124       -1.60115608
 C           -2.94233138       -1.11386376       -2.00051647
 C           -2.37195087       -1.57797105       -3.25717753
 C           -1.65045264        2.31215862       -1.91675742
 C           -0.32961850        2.67589903       -2.19660944
 C           -2.15074957        1.12793207       -2.45632641
 C            1.62969739        1.83815120       -3.37436001
 C            1.70471802        0.52986849       -4.00454624
 C            0.24351885        2.26181721       -3.39280152
 C           -0.23948438       -0.99103621       -4.27758434
 C           -1.63782811       -0.68756835       -4.02499357
 C           -1.69890727        0.72564397       -3.70868982
 C            0.41971134        0.25536428       -4.60370507
 C           -0.48783121        1.33216754       -4.23503564
