   70
C70 / DATE: 7/ 1/2024 / Origin: Program Fullerene / C70 from database
 C            1.29105948       -0.14111357        4.28852774
 C            2.58705587       -0.47838190        3.75228937
 C            2.53853061       -1.85281521        3.28303923
 C            0.43590652       -1.31214806        4.16764370
 C            1.21846163       -2.38391036        3.57856661
 C           -0.79546064       -0.90021833        3.51237907
 C            0.58178661        0.98562132        3.71363357
 C           -0.76424046        0.54416835        3.40107622
 C            1.22010549        1.84094173        2.81252553
 C            3.11024966        0.33467732        2.67692791
 C            2.53498058        1.56674528        2.38594618
 C            3.01393117       -1.87730068        1.90638928
 C            3.44369736       -0.53645153        1.56153088
 C            2.31624346       -2.62347617        0.96751319
 C            0.61457172       -3.20120040        2.63474710
 C            1.34213582       -3.51099611        1.41835244
 C           -1.28594643       -1.65237773        2.44840261
 C           -0.75148344       -2.91726147        2.22191524
 C           -1.99193274       -1.01454866        1.42425303
 C           -1.40967169        1.14855321        2.33681151
 C           -2.17797904        0.37464523        1.46700777
 C            0.40877403        2.69589600        2.05429987
 C           -0.94861113        2.38645732        1.90618993
 C            1.00096635        3.62448608        1.20340101
 C            3.00576409        2.17916707        1.23146850
 C            2.34262202        3.36436028        0.73876607
 C            3.24352201       -0.05479361        0.26868539
 C            3.31117522        1.32608022        0.09171644
 C            2.27244472       -2.18079132       -0.35585085
 C            2.51686767       -0.83295423       -0.64359677
 C            1.65421562       -2.98461253       -1.30948001
 C            0.36707380       -4.02260138        0.47829043
 C           -0.93752852       -3.54745046        0.92701344
 C            0.66432316       -3.95978295       -0.87284081
 C           -2.40806182       -1.74710646        0.30681842
 C           -1.80052222       -2.96857866        0.00217927
 C           -3.23957996       -1.14887184       -0.63319727
 C           -2.92829636        1.01953137        0.47934946
 C           -3.49755920        0.27632166       -0.55201331
 C           -1.74253278        3.10474084        1.02019763
 C           -2.81770143        2.40371303        0.33648492
 C            0.25621149        4.12963871        0.06575052
 C           -1.12494481        4.01902485        0.07250792
 C            2.29095192        3.26744829       -0.71072882
 C            2.70242636        1.92807794       -1.07591291
 C            0.98014496        3.72036201       -1.13045528
 C            1.88725017       -0.22796942       -1.74353357
 C            1.85076544        1.16237012       -1.85401451
 C            1.17621552       -2.38679527       -2.54228101
 C            1.22511034       -1.00574079       -2.69589246
 C           -0.44413293       -3.90554970       -1.80421260
 C           -1.70855761       -3.37855157       -1.32816584
 C           -0.03284935       -3.09217600       -2.93120364
 C           -3.09340921       -1.49515934       -2.03790708
 C           -2.24809588       -2.53972369       -2.38354342
 C           -1.18332552       -2.31454160       -3.35437744
 C           -3.49898642        0.80583214       -1.91025614
 C           -3.04885711       -0.25483932       -2.79442126
 C           -2.95182371        2.99122805       -0.98389351
 C           -1.80277566        3.85086929       -1.20042268
 C           -3.06590952        2.10664377       -2.12800137
 C            0.29990061        3.00925379       -2.11634179
 C            0.80983390        1.77956232       -2.55193899
 C           -1.04960998        3.29899634       -2.31045234
 C           -1.90889799        2.34010500       -2.98334306
 C            0.32288078       -0.39649086       -3.56839251
 C           -0.96163951       -1.03064135       -3.83170735
 C           -1.99008107       -0.01854706       -3.66475739
 C            0.09848991        1.03640161       -3.48573573
 C           -1.32564194        1.27454906       -3.65372567
