   70
C70 / DATE: 7/ 1/2024 / Origin: Program Fullerene / C70 from database
 C            1.53755450        0.20091288        4.98515579
 C            0.74171542       -1.01085202        4.99702133
 C            1.51591719       -2.04401502        4.33710535
 C            2.65836485       -0.01326266        4.08066810
 C            2.66933270       -1.40836766        3.71557906
 C            2.56698392        0.97567749        3.02393639
 C            0.71817568        1.25765187        4.42165884
 C            1.48384341        1.87558955        3.36666660
 C           -0.57842739       -0.68706243        4.47836255
 C           -0.57459795        0.70804181        4.06804814
 C           -1.23404179       -1.61082221        3.68094597
 C            0.86503470       -2.85689693        3.32642111
 C           -0.51263934       -2.77578712        3.17550948
 C            2.65205628       -1.75183630        2.30850303
 C            1.69580886       -2.82800011        2.13380192
 C            2.70080426        0.60208258        1.67955113
 C            2.71404401       -0.75812206        1.33141051
 C            2.31224068        1.54594986        0.71151436
 C            0.79915456        2.42534830        2.30394311
 C            1.52909411        2.61811141        1.14716920
 C           -1.12539194        1.07483055        2.83621908
 C           -0.56475219        2.15242969        2.14996054
 C           -2.08190441       -1.12678551        2.60662612
 C           -1.92675820        0.17327805        2.13168467
 C           -1.08118076       -3.10299989        1.88318769
 C           -2.20412665       -2.20919370        1.65446571
 C            1.09706610       -2.97407275        0.88618895
 C           -0.23661592       -3.38375978        0.81264901
 C            2.38026533       -1.11677983        0.03099031
 C            1.65171960       -2.28970911       -0.19634576
 C            2.27835947        1.17636467       -0.64269080
 C            2.47181953       -0.16304610       -0.97272728
 C            1.76298754        2.06741473       -1.59800419
 C            0.96191728        3.46700384        0.22115809
 C            1.30306157        3.30968001       -1.17029448
 C           -1.17065698        2.60068086        0.97550135
 C           -0.48027977        3.58764010        0.27775400
 C           -2.27431375        0.45199755        0.80542339
 C           -1.99301529        1.71516022        0.26190858
 C           -2.53457889       -1.91198308        0.34203682
 C           -2.75685257       -0.58026129       -0.01192073
 C           -0.82933700       -3.47525631       -0.44105401
 C           -2.10310410       -2.80303435       -0.63678458
 C            1.19743096       -2.57542087       -1.48196740
 C           -0.03023990       -3.21733924       -1.62503944
 C            2.35387436       -0.57854872       -2.29016286
 C            1.72366589       -1.86030383       -2.55390795
 C            1.48875155        1.62944774       -2.90272021
 C            1.90093631        0.36188037       -3.29521067
 C            0.51846312        2.27221666       -3.67846976
 C            0.24598418        3.98174024       -1.89962466
 C           -0.92643756        3.98080889       -1.03556402
 C           -0.15783236        3.44874163       -3.17750910
 C           -2.39464293        2.02051527       -1.05150308
 C           -1.93560273        3.17738535       -1.68066195
 C           -1.57242596        3.11941432       -3.08633930
 C           -3.15252905       -0.30060778       -1.31340382
 C           -2.98166526        1.03597016       -1.84080576
 C           -2.20563261       -2.43836170       -2.03836718
 C           -0.94936863       -2.80328808       -2.67659919
 C           -2.82856923       -1.24483966       -2.37280243
 C            0.94717798       -1.73355691       -3.77494314
 C            1.09291806       -0.37209697       -4.25705262
 C           -0.46792757       -2.05061781       -3.73946178
 C           -0.49092958        1.47636897       -4.35582656
 C           -1.77990261        1.87751567       -3.80962752
 C           -2.60752988        0.91698584       -3.24560048
 C           -2.36433495       -0.48801831       -3.52281461
 C           -0.22795630        0.13309714       -4.58895987
 C           -1.20042199       -0.87302819       -4.18395912
