   70
C70 / DATE: 7/ 1/2024 / Origin: Program Fullerene / C70 from database
 C            1.16194384       -0.06584240        4.60087973
 C            2.49137108       -0.28754481        4.07143446
 C            2.46451481       -1.54874830        3.34190786
 C            0.37115511       -1.24060095        4.27286151
 C            1.08713524       -1.98350464        3.26388989
 C           -0.95463843       -0.79011585        3.94273800
 C            0.40893622        1.10168187        4.17259259
 C           -0.94722107        0.66270196        3.90701975
 C            0.99288862        2.03249414        3.32504147
 C            3.08127162        0.70822017        3.19525896
 C            2.37155909        1.86497763        2.88074651
 C            3.18996365       -1.35201064        2.10987927
 C            3.76395949       -0.01944868        2.14090277
 C            2.64159267       -1.80056139        0.91593367
 C            0.49279288       -2.14798591        2.01175672
 C            1.29162454       -2.18409508        0.86346774
 C           -1.64187080       -1.42840852        2.92484773
 C           -0.89832259       -2.01448933        1.88136695
 C           -2.85408735       -0.84180890        2.61209607
 C           -1.70591906        1.27861844        2.91087331
 C           -2.87146396        0.61196618        2.54273151
 C            0.22073309        2.55875284        2.20991951
 C           -1.05365499        2.05877241        1.94633937
 C            2.47369361        2.42958641        1.54455445
 C            1.13433036        2.77949287        1.10311209
 C            4.01055399        0.60733683        0.92780458
 C            3.35731491        1.87693803        0.62868000
 C            3.27926886       -1.41850264       -0.25950367
 C            3.95011316       -0.19309247       -0.28532124
 C            2.83991307       -1.96607809       -1.45563146
 C            0.69293212       -2.40808473       -0.37752791
 C            1.49998187       -2.52599716       -1.50035304
 C           -1.48487511       -2.18101085        0.61414323
 C           -0.67907656       -2.20383376       -0.52720096
 C           -3.59954538       -1.35374389        1.49250429
 C           -2.86258020       -2.05931418        0.47117687
 C           -3.54157558        0.97171929        1.31182561
 C           -4.23892706       -0.21784799        0.86049428
 C           -1.52814810        2.07622929        0.62771703
 C           -2.86072222        1.73746932        0.37204117
 C            0.72521664        2.44742535       -0.18363582
 C           -0.62619380        2.23770649       -0.43536315
 C            2.98768192        1.85304917       -0.77792925
 C            3.69191923        0.73388973       -1.37241142
 C            1.66630792        2.09632964       -1.15374182
 C            3.04516475       -1.21003907       -2.67595991
 C            3.22891891        0.22663588       -2.57305133
 C            0.94278571       -2.25741774       -2.81128622
 C            1.90744381       -1.44899386       -3.54130857
 C           -1.23305315       -1.96839841       -1.80194831
 C           -0.40321400       -1.93060708       -2.93414855
 C           -3.40835569       -1.63754726       -0.80299661
 C           -4.26673997       -0.47926117       -0.55839976
 C           -2.59309214       -1.63827073       -1.93138845
 C           -3.33111590        1.73828616       -0.94174124
 C           -4.13799436        0.60986400       -1.40302028
 C           -1.05422272        2.10114818       -1.75238803
 C           -2.42040039        2.08663262       -2.01591586
 C            1.22776821        1.65879131       -2.40688372
 C            2.06203579        0.84238618       -3.18057976
 C            1.47190640       -0.16192905       -4.05012282
 C           -0.12424304        1.76966369       -2.74840109
 C           -0.75437397       -1.11792875       -4.01089801
 C            0.13614775       -0.03027879       -4.37319014
 C           -0.55114853        1.16274882       -3.93169305
 C           -3.01874520       -0.88290761       -3.02477688
 C           -3.75567087        0.33852419       -2.76963037
 C           -2.91466105        1.43431599       -3.20993003
 C           -2.09080997       -0.57535495       -4.08585117
 C           -1.95617772        0.87725051       -4.13440903
