   70
C70 / DATE: 7/ 1/2024 / Origin: Program Fullerene / C70 from database
 C            1.28348285        0.14737177        4.85698685
 C            2.48194099       -0.10757990        4.08652659
 C            2.49006260       -1.51692179        3.72609290
 C            0.46899783       -1.05643977        4.82584842
 C            1.24311754       -2.10620008        4.18329708
 C           -0.82837203       -0.70244062        4.26664294
 C            0.43794600        1.25599705        4.47142891
 C           -0.90379562        0.73815297        4.24312125
 C            0.78937952        2.04941139        3.30604237
 C            2.72696492        0.65758407        2.87383076
 C            1.87342921        1.69545721        2.49728514
 C            2.84048349       -1.61322313        2.31600590
 C            3.17324392       -0.27584379        1.85889944
 C            2.09897171       -2.44935450        1.48068685
 C            0.57995096       -2.98124297        3.33665848
 C            1.19138320       -3.33065709        2.06552339
 C           -1.31388623       -1.43848457        3.18797415
 C           -0.82029959       -2.73080102        3.04305198
 C           -1.90414566       -0.78503730        2.08520879
 C           -1.41791493        1.38024411        3.05623410
 C           -0.46406292        2.39772651        2.66517137
 C           -1.99429781        0.61539795        2.05110227
 C           -0.43022296        2.76659838        1.33112705
 C            1.84994359        2.09079305        1.15696559
 C            0.81333399        2.92181989        0.73538884
 C            2.94708165        0.03848516        0.53092728
 C            2.53517264        1.32844728        0.20267874
 C            1.99701800       -2.12707048        0.11748211
 C            2.67049325       -0.99522806       -0.35335832
 C            1.05782893       -2.76926204       -0.70909526
 C            0.13412440       -3.90005598        1.26165650
 C           -1.13194205       -3.48529597        1.85488260
 C            0.07465836       -3.57041622       -0.14323200
 C           -2.30652202       -1.52232992        0.95482123
 C           -1.90492188       -2.84984272        0.81425794
 C           -1.30483347       -3.25314801       -0.44005580
 C           -2.71590659       -0.85198619       -0.20627888
 C           -2.22132477        1.24388999        0.83182340
 C           -1.49979118        2.40216425        0.51674891
 C           -2.85520193        0.53629929       -0.17677557
 C           -1.53645405        2.90906946       -0.78349391
 C            0.84870807        3.42855373       -0.55368657
 C           -0.40903632        3.57425114       -1.26741622
 C            2.44686283        1.67988811       -1.14671436
 C            1.80475909        2.86696493       -1.48764603
 C            2.66142436       -0.70388607       -1.70868822
 C            2.63857927        0.69177674       -2.11580043
 C            0.80046318       -2.25353169       -1.98168873
 C            1.75077027       -1.42815103       -2.56998756
 C           -1.55530261       -2.46463908       -1.54525520
 C           -2.54968953       -1.50143856       -1.43668137
 C           -0.51983643       -2.24163467       -2.44997572
 C           -2.98996008       -0.89608857       -2.60674554
 C           -3.22254343        1.22036732       -1.32942047
 C           -2.49571002        2.42890247       -1.67453215
 C           -3.45244023        0.47332100       -2.54894524
 C           -2.21293975        2.38886213       -3.10443301
 C           -2.84475865        1.20287045       -3.65062657
 C           -0.10133001        3.53555889       -2.68501174
 C            1.25971155        3.04073157       -2.82428190
 C           -0.95586766        2.76352696       -3.56341531
 C            1.94393287        0.76384724       -3.39444773
 C            1.37848497       -0.54916310       -3.66672463
 C            1.23391840        1.90932151       -3.72994888
 C           -0.11586563        1.79532430       -4.26090994
 C           -0.83156827       -1.59932668       -3.64613251
 C           -2.16562434       -1.03753621       -3.79635403
 C           -2.03913361        0.27036789       -4.41623328
 C            0.11175974       -0.65771430       -4.22291992
 C           -0.62288194        0.54262594       -4.59546711
