   70
C70 / DATE: 7/ 1/2024 / Origin: Program Fullerene / C70 from database
 C            1.58641018        0.04318318        4.58887062
 C            0.79944344       -1.17189577        4.54451031
 C            1.23059570       -1.95277748        3.39769868
 C            2.59715884       -0.05932601        3.55778773
 C            2.41913698       -1.31443938        2.85615670
 C            2.52563747        1.14832985        2.77180927
 C            0.70540557        1.14443480        4.22760327
 C            1.23677923        1.76275297        3.03596531
 C           -0.58709781       -0.77315435        4.59854283
 C           -0.63685821        0.62546083        4.18167737
 C           -1.51368592       -1.63370389        4.04021178
 C            0.25675952       -2.44304915        2.52566226
 C           -1.05638954       -2.53736826        2.98483941
 C            0.51194201       -2.44441549        1.14970309
 C            2.60483941       -1.31030154        1.48039102
 C            1.79936574       -2.13275968        0.70204942
 C            2.90469151        1.07396666        1.44868737
 C            3.17036403       -0.17795820        0.88668417
 C            2.38118591        2.03572737        0.61077593
 C            0.39683513        2.02361769        1.94710824
 C            1.01505915        2.31041487        0.72575427
 C           -1.47304631        0.97968864        3.12319178
 C           -0.92992655        1.55968836        1.95725795
 C           -2.74764941       -1.04373059        3.57481222
 C           -2.68742878        0.30968815        3.05228500
 C           -2.13895626       -2.68554967        2.03054704
 C           -3.25133221       -1.89286432        2.51975426
 C           -0.54551566       -2.51967053        0.22785386
 C           -1.86608857       -2.66211322        0.66556624
 C           -0.28992504       -2.35621383       -1.13700520
 C            2.09891363       -2.24490861       -0.64734101
 C            1.01447896       -2.40944232       -1.59652978
 C            3.48039697       -0.21707116       -0.47688122
 C            3.05823945       -1.31831353       -1.22699571
 C            3.00556023        2.17142815       -0.60977324
 C            3.69930293        1.00238263       -1.12026267
 C            2.27415801        2.75062099       -1.70685123
 C            0.24453794        2.46455229       -0.43009496
 C            0.88266217        2.78506440       -1.63800067
 C           -1.69170156        1.61699413        0.77438106
 C           -1.12013797        2.13221229       -0.40687373
 C           -3.44359557        0.32581823        1.82436490
 C           -3.92474711       -1.03225816        1.57662673
 C           -2.99271913        1.08597277        0.75113803
 C           -2.90918382       -2.33834701       -0.20634632
 C           -3.97864709       -1.46045546        0.26356466
 C           -1.28095955       -1.85206336       -1.97562501
 C           -2.60820646       -1.97218119       -1.58189621
 C           -0.93537556       -0.96427040       -3.01054558
 C            1.36355812       -1.69283251       -2.81019150
 C            2.70964065       -1.16507383       -2.63376038
 C            0.39506846       -0.92993801       -3.46376703
 C            3.66816225        1.07923256       -2.56909117
 C            2.93616288        2.28704636       -2.91625886
 C            3.08968920       -0.01875348       -3.31716613
 C            0.80746871        0.07263670       -4.34441202
 C            2.13511993        1.99274612       -4.08153063
 C            2.17930870        0.55069889       -4.29427686
 C            0.14721906        2.84160100       -2.81453327
 C            0.74323009        2.38875278       -4.06535123
 C           -0.02557618        1.24148084       -4.50684008
 C           -1.86360548        2.13811355       -1.60006847
 C           -1.81613691        0.07891450       -3.35653751
 C           -1.20727582        2.34737109       -2.80932226
 C           -1.27050582        1.27278242       -3.78809966
 C           -3.62438023        0.87773516       -0.46713735
 C           -4.15898707       -0.44336673       -0.74485827
 C           -3.52550229       -0.92226932       -1.95451123
 C           -2.99863121        1.34170446       -1.67754902
 C           -2.97471308        0.23002076       -2.61754731
