   70
C70 / DATE: 7/ 1/2024 / Origin: Program Fullerene / C70 from database
 C            1.23177400       -0.08227706        4.32419112
 C            2.44520554       -0.32069230        3.58074369
 C            2.38299564       -1.67766146        3.06306722
 C            0.39836999       -1.27138643        4.20425269
 C            1.02345781       -2.14295723        3.23696086
 C           -0.95425519       -0.82281969        3.95826803
 C            0.40411719        1.04998716        3.96108862
 C           -0.96132603        0.61644290        4.16805341
 C            0.70050544        1.80399071        2.82417901
 C            2.75603809        0.54650630        2.46447414
 C            1.87801204        1.56260139        2.09168795
 C            2.92853953       -1.65683365        1.71762658
 C            3.32050588       -0.29041328        1.42426722
 C            2.28320415       -2.37402850        0.71662093
 C            0.31889906       -2.52543804        2.10291421
 C            1.04434821       -2.96451617        0.99844730
 C           -1.67190433       -1.34943772        2.88544617
 C           -1.02085358       -2.14487710        1.92983698
 C           -2.87152609       -0.72506396        2.54825708
 C           -1.98118757        1.35597404        3.59517089
 C           -3.09800666        0.63223152        3.01665112
 C           -0.30496155        2.61749671        2.28628815
 C           -1.63291864        2.42573527        2.67074299
 C           -0.05823545        3.34318541        1.12730658
 C            2.02990985        2.11720775        0.82092448
 C            1.19955653        3.16107673        0.43428852
 C            3.23100677        0.14508300        0.10926224
 C            2.80180308        1.45074093       -0.13779216
 C            2.60837264       -2.07263121       -0.60594546
 C            3.12829554       -0.80937259       -0.90510274
 C            2.09988278       -2.87443221       -1.62339889
 C            0.35113279       -3.60773023       -0.01604535
 C            0.96546776       -3.72300955       -1.32473862
 C           -1.64889809       -2.40241739        0.70469521
 C           -1.04659493       -3.26710612       -0.20315490
 C           -3.36663421       -0.80629140        1.18481290
 C           -2.64535710       -1.54125679        0.25122217
 C           -3.60545057        1.41212222        1.90386350
 C           -2.67817464        2.50209726        1.66009274
 C           -3.89816743        0.49852791        0.82032306
 C           -1.10644499        3.44533463        0.12105961
 C           -2.32873324        2.81861094        0.34866363
 C            0.96105888        3.40879878       -0.97719598
 C           -0.47496511        3.35262847       -1.18612089
 C            2.85240697        1.94102056       -1.44058120
 C            1.79626507        2.82010580       -1.90957773
 C            3.22619829       -0.39610887       -2.23072777
 C            3.16185185        1.02334415       -2.52326957
 C            1.89097783       -2.31465819       -2.94774895
 C            2.46536034       -1.08935128       -3.25558263
 C           -0.05814442       -3.46379637       -2.32216681
 C           -1.26183933       -3.04853224       -1.62230981
 C            0.51113633       -2.58400126       -3.32669487
 C           -2.70759988       -1.20057385       -1.10511952
 C           -1.92941349       -1.89842030       -2.03082290
 C           -3.72231873        0.94701585       -0.47644369
 C           -2.98056223        2.18148605       -0.71041309
 C           -3.30269030       -0.00068963       -1.48873212
 C           -1.00236838        2.49205282       -2.14535848
 C           -2.31412846        2.04879588       -1.99995019
 C           -2.70965095        0.76902548       -2.56347569
 C            1.20488656        2.19086851       -3.07607752
 C            2.16581295        1.21729762       -3.56587819
 C            1.69485268       -0.09108773       -3.98232072
 C           -0.15229586        1.87224148       -3.06772783
 C           -0.27468582       -1.55928040       -3.83717632
 C           -1.57181968       -1.28524844       -3.23487881
 C           -1.85233342        0.12688601       -3.43804181
 C            0.33303554       -0.28173251       -4.17813302
 C           -0.60079726        0.76961087       -3.79704680
