   70
C70 / DATE: 7/ 1/2024 / Origin: Program Fullerene / C70 from database
 C            1.20890025       -0.17100421        4.62782512
 C            2.54088249       -0.47352452        4.13849185
 C            2.57059652       -1.87390962        3.75716779
 C            0.39530272       -1.36585575        4.48264091
 C            1.24604521       -2.43267596        3.98804186
 C           -0.79450512       -1.00860151        3.72829969
 C            0.48342841        0.93599626        4.03092483
 C           -0.78289800        0.42915339        3.52835971
 C            1.17524878        1.86276753        3.26656862
 C            3.06876803        0.30182997        3.02988708
 C            2.49169406        1.52561065        2.72844280
 C            3.15960193       -1.96535660        2.42827707
 C            3.36177815       -0.61205084        1.93768022
 C            2.69343352       -2.93638975        1.55617536
 C            0.72613141       -3.31922705        3.05567371
 C            1.58596699       -3.77699260        1.97756383
 C           -1.21191962       -1.82589628        2.68359712
 C           -0.58796517       -3.05973776        2.48090282
 C           -1.97453144       -1.27456249        1.65263383
 C           -1.30765073        0.94438744        2.34477250
 C           -2.08211239        0.11721551        1.53450845
 C            0.45813752        2.57764791        2.22701991
 C           -0.79735777        2.13262181        1.81436280
 C            2.51808254        1.98353356        1.35229831
 C            1.42833171        2.92427022        1.21002732
 C            2.97797713       -0.27158864        0.63748762
 C            2.74441198        1.07273729        0.32126280
 C            2.47609188       -2.59130905        0.16112256
 C            2.58342385       -1.26890334       -0.25940415
 C            0.75051691       -4.02714345        0.81820531
 C           -0.61053043       -3.65620081        1.15393757
 C            1.36243196       -3.38316313       -0.32867709
 C           -2.29106876       -2.07716063        0.55952345
 C           -1.37403731       -3.04782785        0.16879640
 C           -3.17788581       -1.59363202       -0.39184881
 C           -2.73131997        0.66788590        0.43084248
 C           -3.46340893       -0.17103663       -0.40809800
 C           -1.27364627        2.58481325        0.58015364
 C           -2.37250040        1.94615254       -0.00274925
 C            0.95502334        3.16966677       -0.06283344
 C           -0.41275365        3.34594350       -0.21958158
 C            2.31581408        1.41911950       -0.96454242
 C            1.66844760        2.64876122       -1.13535114
 C            1.97223642       -0.90078280       -1.45416604
 C            2.11697318        0.40483679       -1.90315825
 C            0.52140207       -2.81670210       -1.27851444
 C           -0.85282328       -2.98361158       -1.12441143
 C            0.97613355       -1.71753560       -2.00481137
 C           -2.98651123       -2.01416486       -1.76728559
 C           -1.68560121       -2.53640784       -2.14060174
 C           -3.71052625        0.21481435       -1.78928223
 C           -3.28778721       -0.88756901       -2.62967709
 C           -2.89415058        2.43506329       -1.19921443
 C           -3.38695375        1.49851491       -2.19133109
 C           -0.85673676        3.84779718       -1.43627162
 C           -2.16632480        3.46417133       -1.91877079
 C            1.30463648        3.06319964       -2.41230486
 C            0.06186376        3.80692764       -2.56347818
 C            1.64874429        0.72124701       -3.17134737
 C            1.37791887        2.10788603       -3.49751005
 C            0.19363359       -1.24275554       -3.06163305
 C           -1.13372999       -1.65781801       -3.16060785
 C           -2.15860905       -0.68712902       -3.52038617
 C            0.57992182       -0.08536711       -3.73027289
 C           -2.56107286        1.67555842       -3.37708614
 C           -2.02112081        3.02233231       -3.29926851
 C           -0.65309099        3.26545838       -3.70715302
 C            0.12179813        2.16002665       -4.22917009
 C           -1.77350679        0.61216662       -3.83648861
 C           -0.44709383        0.82347915       -4.21618652
