   70
C70 / DATE: 7/ 1/2024 / Origin: Program Fullerene / C70 from database
 C            1.49451444       -0.03031017        4.83260234
 C            0.71047657       -1.19029283        4.47213654
 C            1.44562841       -1.93320254        3.46667403
 C            2.63880593        0.00936838        3.93796537
 C            2.47203863       -1.04428640        2.95356956
 C            2.75169119        1.36540773        3.47339911
 C            0.68280852        1.14127793        4.55000305
 C            1.53057731        2.07205301        3.85549428
 C           -0.61980692       -0.73797309        4.11292318
 C           -0.53223088        0.69423501        3.89359176
 C           -1.29507036       -1.49158565        3.17095998
 C            0.69281403       -2.64196438        2.54899045
 C           -0.68630326       -2.66801380        2.74093148
 C            1.16279798       -2.72485677        1.24307680
 C            2.47979996       -0.74204160        1.58498241
 C            1.84461796       -1.62653733        0.70665839
 C            2.93265103        1.59395321        2.05648072
 C            2.85397472        0.53618039        1.14300509
 C            1.02465407        2.69810520        2.65350841
 C            2.16201909        2.77995504        1.76860915
 C           -0.88894287        1.20740713        2.63904908
 C           -0.19763043        2.30212547        2.09784764
 C           -2.11846772       -0.82602377        2.26974275
 C           -1.73556856        0.44528661        1.82687707
 C           -2.95433920       -1.60552248        1.48399448
 C           -1.43089664       -3.52472676        1.94563289
 C           -2.70900998       -3.04003596        1.45300458
 C            0.52089993       -3.61660785        0.39664042
 C           -0.74853647       -4.17453631        0.83959584
 C            0.39685432       -3.29364466       -1.01015204
 C            1.64459753       -1.26113704       -0.63102897
 C            0.91021419       -2.08774324       -1.48684116
 C            2.67593914        0.88680151       -0.20089585
 C            2.11775588       -0.03339180       -1.09777328
 C            1.89310544        3.02975140        0.44715587
 C            2.56132952        2.25015594       -0.48392429
 C           -0.43089228        2.68473615        0.77121544
 C            0.59218014        3.38972003        0.13219399
 C           -1.94555308        0.81647494        0.49230794
 C           -1.34495385        1.97049264       -0.01432277
 C           -3.25876078       -1.17816545        0.13366391
 C           -2.69611920       -0.00077610       -0.35843833
 C           -2.86575589       -3.49812051        0.08685342
 C           -1.65319731       -4.19981857       -0.29253752
 C           -0.91922524       -3.73163145       -1.45187075
 C           -3.28446644       -2.36286680       -0.71180733
 C           -1.58291281       -2.95849505       -2.38825341
 C           -2.80618350       -2.25059207       -2.00550193
 C            0.42742434       -1.57810043       -2.69461782
 C           -0.80322640       -2.02980676       -3.17982901
 C            1.81833098        0.37717860       -2.40468427
 C            0.92325909       -0.36940968       -3.18727220
 C            2.45831409        2.66035049       -1.80088428
 C            2.21507029        1.65364267       -2.81309790
 C            0.38916601        3.85776802       -1.15349516
 C            1.52167721        3.74183135       -2.05714291
 C           -1.46544982        2.27748554       -1.37722656
 C           -0.76979108        3.38097584       -1.87919555
 C           -2.62073398        0.18587471       -1.74082932
 C           -2.71035869       -0.92614159       -2.58306887
 C           -1.75411590       -1.05217617       -3.66037297
 C           -2.05588628        1.35461323       -2.25509833
 C            0.19110612        0.25217897       -4.20618252
 C           -1.24708953        0.10975055       -4.18888902
 C           -1.70893361        1.35171750       -3.61163970
 C            1.52240118        2.32022306       -3.90251361
 C            1.00983190        3.58241190       -3.39830423
 C           -0.43286701        3.45170995       -3.29074237
 C            0.41273589        1.64623129       -4.52256241
 C           -0.80878705        2.35310366       -4.14034078
