   70
C70 / DATE: 7/ 1/2024 / Origin: Program Fullerene / C70 from database
 C            1.17185713        0.04052517        4.33772561
 C            2.46406318       -0.30860322        3.79272000
 C            2.44808722       -1.73369765        3.51802397
 C            0.34453407       -1.15567905        4.31030371
 C            1.06561759       -2.17148559        3.57782540
 C           -0.96073468       -0.76905487        3.83432405
 C            0.41490940        1.10118198        3.70305081
 C           -0.96473544        0.67157316        3.63436955
 C            0.93785030        1.77553963        2.61167638
 C            2.90995812        0.35784407        2.58622118
 C            2.14627827        1.37069457        2.02618752
 C            3.17969557       -1.95372943        2.28839469
 C            3.46395561       -0.64700090        1.69982483
 C            2.74299115       -2.96895708        1.45540980
 C            0.49023166       -2.73944140        2.43907186
 C            1.33654319       -3.36016712        1.51466114
 C           -1.59450787       -1.55122152        2.88306360
 C           -0.81490568       -2.37903969        2.05213911
 C           -2.78619827       -1.03398223        2.39739455
 C           -1.79162083        1.18934380        2.63471555
 C           -2.88617343        0.41276532        2.26085299
 C            0.06411104        2.54325666        1.85270816
 C           -1.27093002        2.12245013        1.72240375
 C            0.63128592        3.36223384        0.88759921
 C            2.39168628        1.70861413        0.70008423
 C            1.82844542        2.88133800        0.22487877
 C            3.34815390       -0.47417467        0.31489966
 C            2.77720935        0.70357532       -0.19470190
 C            3.11887665       -2.89837573        0.06076034
 C            3.43808097       -1.59657994       -0.49893807
 C            0.87917278       -3.55853719        0.15152905
 C            2.02660283       -3.45267791       -0.71680557
 C           -1.24726343       -2.67401313        0.74717120
 C           -0.31391352       -2.97037730       -0.23633349
 C           -3.39485284       -1.63746891        1.23743693
 C           -2.54715661       -2.39885970        0.35243174
 C           -3.58000600        0.69318823        1.02150469
 C           -4.01135513       -0.57784309        0.46299698
 C           -2.01008741        2.46250707        0.57510708
 C           -3.07807001        1.66135015        0.16289934
 C           -0.21432603        3.98283304       -0.10283914
 C           -1.55021163        3.46198056       -0.28129244
 C            1.64758810        3.05851308       -1.19753113
 C            0.47458393        3.90033205       -1.37979775
 C            2.41514931        0.79189611       -1.55437021
 C            1.84507760        1.97913020       -2.05083003
 C            2.85641750       -1.55926539       -1.81938966
 C            1.89847869       -2.65134388       -1.90860267
 C            2.48974076       -0.34453755       -2.37824213
 C           -0.46881958       -2.43735027       -1.52774502
 C            0.63148445       -2.35576717       -2.39736834
 C           -2.77011562       -1.92261142       -1.00205584
 C           -3.74448233       -0.84205279       -0.93745216
 C           -1.68186896       -1.81923108       -1.87097965
 C           -3.38228205        1.56026287       -1.19500965
 C           -3.58813774        0.24397009       -1.78178035
 C           -1.77781421        3.33639617       -1.71155269
 C           -0.50177650        3.53086683       -2.38727022
 C           -2.65916067        2.36514693       -2.16533471
 C            1.17686395        1.98424893       -3.27639098
 C           -0.11208404        2.65166377       -3.38888847
 C            1.64570287       -0.43410361       -3.47759696
 C            0.59646639       -1.43960222       -3.44010154
 C            1.09512711        0.76827819       -4.04827776
 C           -1.72697804       -0.89188130       -2.91733429
 C           -2.67141667        0.13381058       -2.89728933
 C           -2.27349205        1.48649038       -3.26029085
 C           -1.06300571        1.68209165       -3.91166453
 C           -0.64657807       -0.78418900       -3.78135208
 C           -0.30781716        0.51701034       -4.33695779
