   70
C70 / DATE: 7/ 1/2024 / Origin: Program Fullerene / C70 from database
 C            1.57230634       -0.00313423        4.71898327
 C            0.76170146       -1.19874664        4.59511931
 C            1.46283003       -2.12161490        3.72351945
 C            2.67245641       -0.11662433        3.77506737
 C            2.56691252       -1.39450841        3.11419616
 C            2.66652437        1.06597878        2.95321101
 C            0.75652001        1.12432668        4.30406889
 C            1.52763627        1.88112444        3.34879594
 C           -0.57729909       -0.79338962        4.22344136
 C           -0.52572237        0.61911174        3.87146446
 C           -1.31013332       -1.65190931        3.42259374
 C            0.72414095       -2.97459279        2.91120626
 C           -0.67246863       -2.85183687        2.89260229
 C            1.37711619       -3.49805050        1.79945220
 C            2.72660517       -1.46868370        1.73070929
 C            2.37939993       -2.67457340        1.13719721
 C            2.92673830        0.95017940        1.59016482
 C            2.71480626       -0.28987197        0.96088159
 C            2.73258683        2.11095367        0.85689442
 C            0.86421508        2.55128533        2.33169484
 C            1.68279301        3.00712125        1.31327461
 C           -1.01717835        1.04031965        2.63549886
 C           -0.44058466        2.15212509        1.99392560
 C           -2.11657520       -1.09308636        2.35466138
 C           -1.88491149        0.20832350        1.92470831
 C           -1.43362763       -3.24178339        1.71133675
 C           -2.31147994       -2.13356635        1.36188193
 C            0.61711653       -4.18032977        0.77401817
 C           -0.81312581       -3.95494481        0.69816829
 C            2.11896183       -2.72528830       -0.28473353
 C            1.19847919       -3.81633305       -0.50700411
 C            2.30644715       -0.33350940       -0.39109209
 C            1.91904855       -1.53897801       -0.97629473
 C            2.62348020        2.03895043       -0.58100785
 C            2.27185423        0.82969052       -1.16333121
 C            1.08170006        3.60050986        0.14802918
 C            1.92251565        3.24324826       -0.98103928
 C           -1.00463574        2.60807111        0.79004219
 C           -0.29562712        3.52819817        0.00105450
 C           -2.26390200        0.56779376        0.63991216
 C           -2.05251292        1.87379712        0.22433965
 C           -2.46276319       -1.76872087        0.02633991
 C           -2.62533032       -0.41456372       -0.29050619
 C           -1.13187428       -3.63956906       -0.68174356
 C            0.11435030       -3.59569812       -1.42942241
 C           -2.09424600       -2.67267812       -0.97492313
 C            1.12178642       -1.52949917       -2.13038773
 C            0.23445916       -2.59491783       -2.37950443
 C            1.58535317        0.83653280       -2.38303910
 C            1.01085447       -0.34232161       -2.87020748
 C            1.36040048        3.29004859       -2.24263796
 C            1.30053555        2.05694881       -3.00950298
 C           -0.81869347        3.94359067       -1.22014243
 C            0.06626493        3.93749784       -2.37527886
 C           -2.66046966        2.30225630       -0.94537036
 C           -2.10426246        3.43609915       -1.64916584
 C           -2.95022525       -0.04681272       -1.59871340
 C           -3.04681448        1.30687332       -1.92915071
 C           -2.15781524       -2.25281965       -2.30035395
 C           -0.93132703       -2.32859945       -3.07697169
 C           -2.77384886       -0.97904094       -2.61600896
 C            0.11612898       -0.27280144       -3.94137373
 C           -0.93799833       -1.25297594       -4.03322009
 C           -2.19775120       -0.54678541       -3.87710316
 C            0.15800202        2.16202580       -3.90311709
 C           -0.63359435        3.30489524       -3.47636245
 C           -2.00485724        3.08732866       -3.05770305
 C           -2.57481751        1.76570033       -3.23059096
 C           -0.48930804        0.99874006       -4.28737894
 C           -1.92724681        0.86351382       -4.06407194
