   70
C70 / DATE: 7/ 1/2024 / Origin: Program Fullerene / C70 from database
 C            1.13373066        0.01005402        4.36163757
 C            2.43933470       -0.30546881        3.82814117
 C            2.45566912       -1.72728073        3.54041128
 C            0.31831397       -1.19243286        4.26945121
 C            1.07859170       -2.18228881        3.54254383
 C           -0.96816871       -0.80212845        3.74848126
 C            0.37700728        1.08722943        3.75411763
 C           -0.99743710        0.65022131        3.67649180
 C            0.89520132        1.78098023        2.67280803
 C            2.88081737        0.37903055        2.63105144
 C            2.10301181        1.38588488        2.07769235
 C            3.22870510       -1.92432316        2.33205185
 C            3.45748245       -0.60999934        1.73752497
 C            2.84835709       -2.95939144        1.49636271
 C            0.55899973       -2.73038208        2.36882147
 C            1.44956957       -3.38169973        1.51899290
 C           -1.52165801       -1.51590302        2.69333481
 C           -0.67514357       -2.27834947        1.86822775
 C           -2.69434337       -0.99011343        2.16884915
 C           -1.84301143        1.22627148        2.73169839
 C           -2.91520358        0.43924205        2.32597950
 C            0.02128650        2.57180685        1.93387491
 C           -1.33553626        2.20175044        1.85007788
 C            0.58635028        3.38449523        0.96061012
 C            2.33432982        1.72129677        0.74990732
 C            1.76419210        2.88990238        0.27407835
 C            3.31695786       -0.44468226        0.35308675
 C            2.70121629        0.71245271       -0.14511600
 C            3.25226979       -2.87888566        0.11085245
 C            3.44573950       -1.56183528       -0.46805505
 C            1.05543643       -3.68275098        0.15929160
 C            2.23980993       -3.55510057       -0.67184830
 C           -0.98783641       -2.44971619        0.50458040
 C           -0.15213660       -3.19949157       -0.33012751
 C           -3.09048118       -1.33272768        0.82299927
 C           -2.14253019       -1.86961267       -0.03079030
 C           -3.74707928        0.87859409        1.23439426
 C           -3.93009000       -0.25502284        0.34195294
 C           -2.14205439        2.68099748        0.79623716
 C           -3.30019589        1.99915453        0.44035540
 C           -0.26143664        4.02685325       -0.01216180
 C           -1.61967935        3.55898870       -0.14753204
 C            1.54176660        3.04152802       -1.14700489
 C            0.38773588        3.90939065       -1.30692415
 C            2.24161251        0.75605037       -1.47191600
 C            1.67841571        1.93418451       -1.97802151
 C            2.81061086       -1.56924018       -1.77187263
 C            2.11750407       -2.84230212       -1.92536127
 C            2.19789010       -0.41232490       -2.24117579
 C           -0.30023233       -3.09738444       -1.71368407
 C            0.87548070       -2.83422058       -2.53534443
 C           -2.23921927       -1.63259883       -1.40588686
 C           -1.40039892       -2.32596588       -2.26694933
 C           -3.73320218        0.21757901       -1.01163435
 C           -3.50908190        1.65443139       -0.95580411
 C           -2.96709596       -0.53684794       -1.88979958
 C           -1.86722817        3.30440075       -1.56124119
 C           -0.62037617        3.54747314       -2.28173474
 C           -2.70742237        2.24757904       -1.93073258
 C            0.95788823        1.89784138       -3.17246494
 C           -0.25593540        2.69615834       -3.31183427
 C            1.25723888       -0.52747120       -3.26469694
 C            0.54212562       -1.71669555       -3.39299958
 C           -0.90654663       -1.66672214       -3.46350241
 C            0.73054382        0.62514196       -3.83037278
 C           -2.57748783        0.07802693       -3.07609563
 C           -2.44534780        1.52787771       -3.09797424
 C           -1.27542460        1.85092948       -3.89293636
 C           -1.50544817       -0.48833567       -3.87799950
 C           -0.64672370        0.60589741       -4.29537475
