   70
C70 / DATE: 7/ 1/2024 / Origin: Program Fullerene / C70 from database
 C            1.55817451       -0.02196520        4.54412573
 C            0.74984186       -1.19213054        4.26625296
 C            1.44494677       -2.00413558        3.28524845
 C            2.71515198       -0.07287242        3.67100398
 C            2.59527013       -1.24751449        2.82274120
 C            2.83231467        1.21970347        3.03037622
 C            0.78098595        1.14578637        4.16875936
 C            1.56843044        1.91685757        3.22435502
 C           -0.59039286       -0.74603175        3.93709991
 C           -0.53611662        0.69450607        3.75762374
 C           -1.30337952       -1.49201246        3.00931796
 C            0.67283593       -2.66772139        2.34645231
 C           -0.71119471       -2.65189956        2.50896354
 C            1.18503897       -2.83255793        1.06365761
 C            2.81771573       -1.10910474        1.45093102
 C            2.05422342       -1.86554247        0.55302293
 C            3.40677613        1.25974550        1.77309932
 C            3.49173327        0.02334263        1.00229102
 C            2.96281064        2.28147179        0.85033401
 C            0.92616849        2.46956394        2.11712421
 C            1.68408718        2.81748641        0.99414390
 C           -1.09654826        1.24340374        2.60904866
 C           -0.45715230        2.31929354        1.99208517
 C           -2.24810222       -0.83930448        2.22100278
 C           -2.04351873        0.50369684        1.89309788
 C           -3.09314498       -1.61414736        1.43838073
 C           -1.47368489       -3.49178516        1.70763188
 C           -2.77173562       -3.02092290        1.25906217
 C            0.50080573       -3.66709713        0.19237900
 C           -0.82259371       -4.13265704        0.57870870
 C            0.45531786       -3.32972181       -1.21452635
 C            1.98485143       -1.50695318       -0.80557732
 C            1.22256986       -2.27494783       -1.69640522
 C            3.42734609        0.38798873       -0.40018975
 C            3.39191297        1.84039275       -0.45833419
 C            2.61650494       -0.34123910       -1.26267485
 C            2.82112559        2.44214027       -1.56265032
 C            1.05249160        3.36315091       -0.12725738
 C            1.72937724        3.37701275       -1.34841360
 C           -1.11194284        2.97732339        0.96447163
 C           -0.32506552        3.57816332       -0.09707217
 C           -2.60971065        1.04535004        0.73175573
 C           -2.27251284        2.34647812        0.36066188
 C           -3.54235937       -1.10098190        0.16047331
 C           -3.29588408        0.22541740       -0.17183405
 C           -2.90248856       -3.33805995       -0.15399592
 C           -1.69948004       -4.01398986       -0.57439205
 C           -0.92902994       -3.43308651       -1.65278116
 C           -3.28088291       -2.12252455       -0.84226841
 C           -1.45931453       -2.40062963       -2.42644560
 C           -2.63892529       -1.74640717       -2.02251051
 C            0.83904114       -1.72339568       -2.91392151
 C           -0.56850870       -1.75769417       -3.28245396
 C            2.23179580        0.24075770       -2.47489261
 C            2.43302096        1.60524035       -2.68012807
 C            1.37799979       -0.44622146       -3.32770811
 C            0.97847961        3.43987523       -2.59134459
 C            1.45280647        2.35884556       -3.44248876
 C           -1.11043105        3.50827176       -1.32204225
 C           -2.30805781        2.73273839       -1.03972555
 C           -0.46866572        3.37128162       -2.54640064
 C           -3.30683090        0.55253700       -1.52640037
 C           -2.91722557       -0.46367907       -2.49117060
 C           -2.78360807        1.82856165       -1.97751660
 C           -0.90660308       -0.48028566       -3.88051063
 C            0.32629667        0.27457915       -4.03298568
 C            0.29657365        1.66232842       -3.97419933
 C           -0.89394243        2.33460962       -3.47534792
 C           -2.06434218        0.16551002       -3.48136673
 C           -2.04144695        1.59580811       -3.20775116
