   70
C70 / DATE: 7/ 1/2024 / Origin: Program Fullerene / C70 from database
 C            1.40565877        0.05959499        4.86830067
 C            0.59818284       -1.14298687        4.74635080
 C            1.38391677       -2.13601454        4.05175674
 C            2.60333507       -0.13279447        4.07064302
 C            2.65542231       -1.52558005        3.69287595
 C            2.60317764        0.86292513        3.01394796
 C            0.65378772        1.15467584        4.28033219
 C            1.41709006        1.68752097        3.17663702
 C           -0.67666060       -0.75955367        4.17718467
 C           -0.67955947        0.67776575        3.99966561
 C           -1.24652498       -1.52272014        3.16214879
 C            0.83229235       -2.74072261        2.85175830
 C           -0.45613976       -2.43152754        2.43821575
 C            2.90745831       -1.83815857        2.30317663
 C            1.88040412       -2.76352424        1.85321834
 C            2.97636984        0.50173295        1.71872291
 C            3.30178521       -0.83245988        1.42620410
 C            2.58367204        1.34333252        0.67604487
 C            0.73857952        2.08256910        2.02995381
 C            1.45356588        2.15096415        0.84534974
 C           -1.34046339        1.16254927        2.87964164
 C           -0.65560448        1.97483454        1.96133386
 C           -2.35583541       -0.97716142        2.51979986
 C           -2.42266929        0.42198289        2.42010908
 C           -2.98107038       -1.77283142        1.56688975
 C           -0.79963365       -2.72279438        1.11820808
 C           -2.13833000       -2.63504285        0.76467529
 C            1.54144692       -2.74654700        0.49943901
 C            0.18987919       -2.67474501        0.12550235
 C            3.39583508       -1.20823759        0.09235321
 C            2.50822009       -2.26304888       -0.37402911
 C            3.07240544        1.10691900       -0.60807462
 C            3.43673613       -0.18911841       -0.93804420
 C            2.70633605        1.96854293       -1.63598964
 C            0.84931032        2.72338899       -0.26230426
 C            1.63064758        2.90988393       -1.39274570
 C           -1.30393989        2.34228205        0.76957333
 C           -0.54655910        2.68290954       -0.36357343
 C           -3.24686699        1.02722024        1.48293156
 C           -2.65813799        2.03110769        0.61512664
 C           -4.00030541       -1.20926390        0.70816784
 C           -4.16560257        0.22581077        0.69988948
 C           -2.49689917       -2.43190403       -0.62303636
 C           -3.71330472       -1.63790208       -0.65081115
 C           -0.15869407       -2.35439295       -1.20104881
 C           -1.49937413       -2.14508906       -1.54359596
 C            2.15468744       -1.96931716       -1.74374666
 C            2.89747539       -0.78536163       -2.14870660
 C            0.83808923       -2.10708581       -2.15541918
 C            2.49748999        1.42453420       -2.96882670
 C            2.35372716        0.04271475       -3.12483856
 C            0.99521997        3.19576593       -2.65976257
 C            1.61970498        2.35057741       -3.66649557
 C           -1.16123478        2.67773212       -1.62523575
 C           -0.43641138        3.02453282       -2.76129190
 C           -3.19615039        1.82951577       -0.71923035
 C           -4.08132125        0.67714233       -0.67630247
 C           -3.75161828       -0.46668294       -1.50657995
 C           -2.33798289        1.95761490       -1.80008806
 C           -1.81205234       -1.32402131       -2.62567860
 C           -2.75136298       -0.30571278       -2.45557191
 C           -2.38940898        0.99203330       -2.80616849
 C            0.49458280       -1.54461081       -3.38247179
 C            1.32840765       -0.47704781       -3.91794822
 C           -0.88880203       -1.20295461       -3.65312025
 C            0.57265281        1.83194587       -4.52010379
 C           -0.69994964        2.29920440       -3.99188180
 C           -1.60741166        1.16638877       -3.94097957
 C            0.47786620        0.39931835       -4.70486322
 C           -0.89953677        0.00938228       -4.45756365
