   70
C70 / DATE: 7/ 1/2024 / Origin: Program Fullerene / C70 from database
 C            1.38128007        0.10488586        5.18942746
 C            0.60256037       -1.11570733        5.26638191
 C            1.29717289       -2.14155668        4.50951555
 C            2.49457662       -0.14155215        4.29013338
 C            2.45748652       -1.52856871        3.88635641
 C            2.43717058        0.85981508        3.25197751
 C            0.54223230        1.13097814        4.58575149
 C            1.24089384        1.65605090        3.44258866
 C           -0.75864953       -0.78993263        4.89146708
 C           -0.76779856        0.57296935        4.36771416
 C           -1.50845530       -1.74882416        4.22978653
 C            0.56548090       -2.85774325        3.47790367
 C           -0.81987358       -2.78667700        3.45901721
 C            2.41237895       -1.82796347        2.46478284
 C            1.29310087       -2.71614093        2.22455243
 C            2.74263416        0.51196628        1.94543550
 C            2.65274612       -0.82300084        1.53266641
 C            2.44656818        1.46487210        0.99125354
 C            0.52488839        1.99526661        2.29800229
 C            1.27694910        2.21075914        1.15586772
 C           -1.43640257        0.83956007        3.16823344
 C           -0.79115758        1.54026246        2.12863191
 C           -2.61762294       -1.28197447        3.42612628
 C           -2.54964972        0.06400017        2.87859065
 C           -1.50184436       -2.91230251        2.18611673
 C           -2.74808958       -2.19320951        2.31051088
 C            0.59578753       -2.58676341        1.02148713
 C           -0.78759749       -2.78637281        0.99258330
 C            2.28585996       -1.06547535        0.20419757
 C            1.21281355       -1.92685706       -0.05168844
 C            2.83994493        1.19680412       -0.30028301
 C            2.61987739       -0.10678506       -0.75050467
 C            2.68206762        2.23888298       -1.19095786
 C            0.63267432        2.67022858        0.01561262
 C            1.45100775        2.99632909       -1.05884650
 C           -1.37183020        1.60100486        0.83902600
 C           -0.66953050        2.21686033       -0.22021592
 C           -3.03727391       -0.00513579        1.52066375
 C           -3.16727271       -1.40866008        1.18036158
 C           -2.50804800        0.83660113        0.54514284
 C           -1.48307230       -2.44681094       -0.16837796
 C           -2.70361969       -1.76502667       -0.06537814
 C            0.55813811       -1.87035450       -1.29048041
 C           -0.76678540       -2.31500496       -1.36223055
 C            2.23538114       -0.31034181       -2.07663451
 C            1.10378584       -1.09867721       -2.33377645
 C            2.89182325        1.96891773       -2.58902042
 C            2.68447546        0.60761574       -3.02526330
 C            0.88336908        3.12262163       -2.37921440
 C            1.95123194        2.79533130       -3.31346573
 C           -1.14249942        2.09884424       -1.54559396
 C           -0.39921921        2.63989076       -2.61395768
 C           -2.74628927        0.48256905       -0.78399734
 C           -2.98646870       -0.86876469       -1.06992650
 C           -2.27784577        1.31524909       -1.79725003
 C           -1.50658885       -2.06376877       -2.51472942
 C           -2.74345660       -1.32637156       -2.34512945
 C            0.43846983       -1.01590116       -3.57094199
 C           -0.85065351       -1.52618291       -3.68670515
 C            2.04348002        0.68546099       -4.31743018
 C            1.61992245        2.07075219       -4.51854803
 C            0.90032020       -0.15761587       -4.57243402
 C           -0.78002207        2.40894582       -3.93872906
 C            0.23146556        2.03910641       -4.91722728
 C           -0.05166023        0.67109980       -5.29602460
 C           -2.64709969        1.00493726       -3.10626087
 C           -2.86052507       -0.38738433       -3.42835360
 C           -1.85897321       -0.75740790       -4.40298428
 C           -1.92202521        1.57340402       -4.21749495
 C           -1.46211509        0.46797319       -5.05780980
