   70
C70 / DATE: 7/ 1/2024 / Origin: Program Fullerene / C70 from database
 C            1.61303309       -0.08346365        5.12935328
 C            0.74547579       -1.23994250        5.27195380
 C            1.26350441       -2.28556571        4.41351096
 C            2.60351679       -0.38502447        4.10998615
 C            2.40722456       -1.75649741        3.68575916
 C            2.54457432        0.65861619        3.10171147
 C            0.80596425        1.01055536        4.62884505
 C            1.49264844        1.58489031        3.48190325
 C           -0.56951908       -0.88265642        4.76459687
 C           -0.54728823        0.52391980        4.42366253
 C            0.14964111       -2.80962053        3.64288771
 C           -0.92567564       -1.83148047        3.72512297
 C            0.43749550       -3.36060695        2.40688459
 C            2.50614164       -2.05124260        2.33050440
 C            1.75688852       -3.12217356        1.84738107
 C            2.64993843        0.29639709        1.76259996
 C            2.88963519       -1.04208668        1.43873117
 C            2.12716359        1.15570221        0.78881781
 C            0.70738137        2.12455184        2.47059374
 C            1.21147779        2.14004297        1.16871343
 C           -1.18836669        0.93667650        3.26515027
 C           -0.67374657        2.05724973        2.63063249
 C           -1.50317480       -1.34750643        2.54891297
 C           -1.86524808        0.00148299        2.47392784
 C           -0.49957926       -3.15890774        1.31912439
 C           -1.38621570       -2.08828551        1.36949472
 C            1.65296918       -3.32527802        0.41653500
 C            0.23493854       -3.40003238        0.09264870
 C            3.08696017       -1.37315591        0.10361611
 C            2.48151332       -2.59051550       -0.41581873
 C            2.30649081        0.85387602       -0.56427432
 C            2.92717949       -0.34037332       -0.90725044
 C            1.58704208        1.54984255       -1.54032368
 C            0.46875579        2.79875300        0.19090703
 C            0.79175041        2.63548700       -1.15537738
 C           -1.46511706        2.64744693        1.66660540
 C           -0.80727403        3.24682501        0.52813073
 C           -2.50453603        0.47042899        1.32204328
 C           -2.54815163        1.85152065        1.12628808
 C           -1.85142926       -1.54270336        0.17332706
 C           -2.60690375       -0.37272262        0.21315415
 C           -0.20941154       -2.80891392       -1.08240914
 C           -1.36517741       -2.02262410       -1.05185478
 C            2.02455239       -2.30695676       -1.76157101
 C            2.54413696       -1.00352380       -2.13607214
 C            0.71222602       -2.61366206       -2.10936255
 C            1.53067568        1.04805022       -2.85373911
 C            1.84580944       -0.29280158       -3.10053532
 C            0.89774906        1.78364674       -3.85699398
 C            0.01336375        3.30184793       -2.09933515
 C            0.12031250        2.94792874       -3.49736077
 C           -1.81778278        3.36692190       -0.50492798
 C           -2.85532696        2.39256064       -0.18787235
 C           -1.39440118        3.51212767       -1.81502830
 C           -3.19354069        0.09804819       -0.95825659
 C           -3.30992364        1.53154782       -1.17460545
 C           -1.86290233       -1.50973461       -2.25254824
 C           -2.83899907       -0.51616628       -2.22501934
 C            0.25079769       -2.11659244       -3.31868427
 C            1.00730936       -1.03859186       -3.92503493
 C           -1.14369724       -1.73443115       -3.42404214
 C            0.14351456        1.08187272       -4.88197892
 C            0.12185271       -0.36363959       -4.84967713
 C           -1.23422159       -0.78575577       -4.52432198
 C           -1.23240623        2.75208368       -4.00615339
 C           -2.13878425        2.86348969       -2.87824584
 C           -2.99253388        1.80754862       -2.56713226
 C           -2.85522983        0.52597167       -3.24481088
 C           -1.23327386        1.53744290       -4.79697081
 C           -2.04176643        0.40788138       -4.36642822
