   70
C70 / DATE: 7/ 1/2024 / Origin: Program Fullerene / C70 from database
 C            1.60701498        0.06155029        4.57957844
 C            0.80284733       -1.14424893        4.53952281
 C            1.31826888       -2.00166612        3.48443143
 C            2.63326961       -0.06016601        3.56140915
 C            2.50660632       -1.36526144        2.94095922
 C            2.55336730        1.10504606        2.70080708
 C            0.74663012        1.16934584        4.20423553
 C            1.34379717        1.82334519        3.06075728
 C           -0.58699390       -0.73895747        4.46877104
 C           -0.60403044        0.66245032        4.07368376
 C           -1.47145054       -1.60130267        3.84398258
 C            0.40666795       -2.60627852        2.61819978
 C           -0.92653232       -2.67332481        3.02152075
 C            0.73831841       -2.74116059        1.26097734
 C            2.74045972       -1.45381090        1.57803157
 C            2.02739195       -2.39816389        0.84272408
 C            2.83636646        0.93354144        1.34712571
 C            3.24262247       -0.32916637        0.91974287
 C            2.23963718        1.79314308        0.41801329
 C            0.52614973        2.25414330        2.03012302
 C            1.12905839        2.54271971        0.81534587
 C           -1.36421221        1.04353993        2.96789199
 C           -0.84660417        1.97353305        2.05170835
 C           -2.57427371       -1.03483849        3.09379272
 C           -2.47670965        0.27334779        2.62160588
 C           -1.94580944       -3.03442184        2.05956808
 C           -3.02991435       -2.07493177        2.19082960
 C           -0.25884463       -2.93934882        0.29270641
 C           -1.58433135       -3.09625655        0.66246978
 C            0.01127320       -2.63471244       -1.03624123
 C            2.38023968       -2.59379866       -0.48928392
 C            1.32080451       -2.72078378       -1.47406394
 C            3.67218756       -0.47283740       -0.38984222
 C            3.40128933       -1.73267337       -1.05536863
 C            2.52660640        1.62737030       -0.94341223
 C            3.37846351        0.59209089       -1.33349069
 C            1.78371284        2.31135470       -1.91260448
 C            0.38730505        3.23513523       -0.12221143
 C            0.76206512        3.17026174       -1.51863290
 C           -1.64175707        2.41726675        0.98718641
 C           -1.06050833        3.16836565       -0.03353664
 C           -3.25883517        0.65369322        1.53636411
 C           -2.86559325        1.80560809        0.74499587
 C           -3.45284404       -1.69469263        0.85776044
 C           -2.59627227       -2.38455152       -0.09592118
 C           -3.76359081       -0.36476873        0.62254189
 C           -0.93086940       -1.92014941       -1.78281091
 C           -2.22166780       -1.72621878       -1.26810567
 C           -0.55624551       -1.28318999       -2.97277465
 C            1.72219608       -2.01325559       -2.67454685
 C            3.03579013       -1.44252566       -2.42816733
 C            3.21808361       -0.01876960       -2.64333472
 C            0.79021029       -1.24583239       -3.36487713
 C            1.85788637        1.91163541       -3.24605623
 C            2.39036642        0.60096049       -3.56252526
 C            1.27477643       -0.15924625       -4.09718005
 C            0.70754986        2.10625957       -4.11635333
 C            0.35708736        0.80432231       -4.66846708
 C           -0.46137164        3.25766507       -2.30247653
 C           -1.58287503        3.06945015       -1.38988266
 C           -0.50062756        2.69876528       -3.57179274
 C           -3.28400729        1.55873159       -0.62681588
 C           -3.61713341        0.14895092       -0.72384515
 C           -2.96846461       -0.62107311       -1.68324118
 C           -2.58463038        2.14119036       -1.67916594
 C           -1.49653628       -0.48818810       -3.62614236
 C           -1.05932394        0.60437937       -4.47483518
 C           -1.60900697        1.83279164       -3.92232645
 C           -2.63387069        0.00240226       -2.87570837
 C           -2.56062955        1.45621561       -2.89332293
