   70
C70 / DATE: 7/ 1/2024 / Origin: Program Fullerene / C70 from database
 C            1.18231267       -0.04145479        4.51627846
 C            2.45766498       -0.34731604        3.91211351
 C            2.40863993       -1.72877811        3.46682238
 C            0.33522016       -1.21958839        4.37764935
 C            1.01937153       -2.14774797        3.51029173
 C           -0.97352970       -0.75688091        3.98818177
 C            0.42299714        1.08337724        4.00560758
 C           -0.96499889        0.69046831        4.12477324
 C            0.84062928        1.73339853        2.84199141
 C            2.89841297        0.44982032        2.78784798
 C            2.14649132        1.54183577        2.35839267
 C            3.10835581       -1.81173530        2.19876302
 C            3.44133327       -0.45551660        1.78740326
 C            2.61612779       -2.68448406        1.24779765
 C            0.41352306       -2.56843500        2.32647449
 C            1.23715792       -3.14519500        1.36742522
 C           -1.59761151       -1.31587137        2.87627866
 C           -0.83660306       -2.04688201        1.94641374
 C           -2.78698422       -0.72290643        2.47588854
 C           -1.91628577        1.40935124        3.42483309
 C           -3.01680059        0.66571433        2.84185370
 C           -0.11465143        2.40123999        2.05933959
 C           -1.46310826        2.35716563        2.41783167
 C            0.22744087        2.88950560        0.79764956
 C            2.51206984        2.10683580        1.14354066
 C            1.56524967        2.93304983        0.42916437
 C            3.35559703       -0.08521984        0.44256299
 C            3.18347836        1.26551462        0.16100473
 C            2.82293967       -2.36738423       -0.14595221
 C            3.01093561       -1.03776615       -0.52533600
 C            0.74001116       -3.36287625        0.02671557
 C            1.86732543       -3.17637788       -0.87173072
 C           -1.30527133       -2.22094176        0.62573823
 C           -0.49995024       -2.85293655       -0.33627521
 C           -3.25861980       -0.90048334        1.12268257
 C           -2.56571689       -1.73192071        0.25368312
 C           -3.44737261        1.37592307        1.65409914
 C           -2.46699222        2.39974174        1.36743878
 C           -3.71546524        0.39238235        0.62930011
 C           -0.76197495        3.04840888       -0.17779757
 C           -2.04446978        2.55273209        0.05463588
 C           -0.39990565        3.41053419       -1.47138167
 C            1.92432161        2.86987714       -0.97607372
 C            2.73244014        1.67606704       -1.15420882
 C            0.95913261        3.16477032       -1.92091928
 C            2.60024135       -0.63881239       -1.80543151
 C            2.33295187        0.71147371       -2.07265586
 C            1.60880935       -2.84634410       -2.18612503
 C            2.18983781       -1.62195006       -2.70576287
 C           -0.79079336       -2.72562573       -1.69841354
 C            0.23232960       -2.86084168       -2.63655533
 C           -2.88748531       -1.62502429       -1.09580650
 C           -2.00174878       -2.17780858       -2.09587978
 C           -3.44254477        0.71556273       -0.69361901
 C           -2.72846181        1.88798561       -0.97284594
 C           -3.37183159       -0.34547932       -1.58870139
 C           -1.28927868        3.06755698       -2.56567722
 C           -2.41304029        2.19001689       -2.29580245
 C            0.87138800        2.33653672       -3.10866620
 C            1.48703474        1.08574631       -3.12776036
 C           -0.48548320        2.45926166       -3.61366039
 C            1.40385364       -1.25022736       -3.86343709
 C            0.19546084       -2.06371063       -3.84946760
 C            1.00162413        0.12890292       -4.01388132
 C           -2.05943574       -1.31632487       -3.27107400
 C           -2.83894270       -0.13908423       -2.92347807
 C           -2.38914725        1.12427160       -3.28526409
 C           -1.17050032        1.26326457       -4.07105460
 C           -0.93743748       -1.18619628       -4.07951874
 C           -0.41026776        0.13783451       -4.36825435
