   70
C70 / DATE: 7/ 1/2024 / Origin: Program Fullerene / C70 from database
 C            1.38452180       -0.10768108        4.08859671
 C            2.45281727       -0.34424073        3.13252206
 C            2.42095587       -1.75892740        2.80942310
 C            0.53025155       -1.28348320        4.08859671
 C            1.08535461       -2.22639161        3.13252206
 C           -0.84049427       -0.84272773        3.91674895
 C            0.54175469        1.05977475        3.91674895
 C           -0.82999713        0.60302821        3.75281215
 C            1.00159890        2.09216851        3.11615118
 C            2.67433747        0.58684365        2.11683982
 C            2.15669388        1.86781254        2.25630893
 C            3.13267936        0.15218314        0.86898183
 C            2.99070528       -2.17287457        1.62224323
 C            3.57392429       -1.16589440        0.75707620
 C            2.21323481       -3.03872280        0.75707620
 C            0.26829425       -2.72479074        2.11683982
 C            0.82331639       -3.02638229        0.86898183
 C           -1.68025942       -1.59909278        3.11615118
 C           -1.10994022       -2.62832359        2.25630893
 C           -2.71816428       -0.92814059        2.35946509
 C           -1.64337215        1.19397975        2.78282009
 C           -2.70255455        0.45575231        2.23222675
 C            0.04275520        2.87193907        2.35946509
 C           -1.26858149        2.42944691        2.23222675
 C            2.00426076        2.70407622        1.08528770
 C            0.72606320        3.39603421        1.18857887
 C            2.88398810        0.92021545       -0.28629031
 C            2.41858104        2.24111016       -0.15540381
 C            3.10309725        0.37181356       -1.56668775
 C            3.68314018       -1.77550361       -0.54687229
 C            2.82675719       -2.95421368       -0.54687229
 C            3.34340185       -0.98661992       -1.70475939
 C            1.97149929       -2.87488179       -1.70475939
 C            2.43637643       -1.77013109       -2.52803218
 C            0.01602443       -3.02719789       -0.28629031
 C            0.60529408       -3.06611757       -1.56668775
 C           -1.95237867       -2.74177076        1.08528770
 C           -3.00545459       -1.73995942        1.18857887
 C           -1.38403978       -2.99274839       -0.15540381
 C           -3.48307397       -1.12691528        0.02930160
 C           -3.50905577        1.01480532        1.25015657
 C           -3.82939783        0.22579830        0.06940488
 C           -2.04949508        3.02371826        1.25015657
 C           -3.26767512        2.37410494        0.82182611
 C           -0.00456893        3.66083617        0.02930160
 C           -1.39809595        3.57219824        0.06940488
 C            1.95107307        2.93291671       -1.26644440
 C            0.63638889        3.55148953       -1.20457673
 C            2.58837640        1.00736348       -2.68753787
 C            2.10206451        2.36066266       -2.58238377
 C            1.52191058       -1.10573276       -3.34954306
 C            1.67524441        0.26870521       -3.54635806
 C           -0.15820731       -2.77298468       -2.68753787
 C            0.26212515       -1.67628659       -3.54635806
 C           -2.18645481       -2.76190187       -1.26644440
 C           -3.18101228       -1.70271242       -1.20457673
 C           -1.59554994       -2.72866703       -2.58238377
 C           -0.89208158       -0.80828253       -3.72430938
 C           -2.95191666       -0.83558220       -2.34964486
 C           -2.05354744       -1.51823790       -3.24716180
 C           -3.56139571        1.05823402       -1.09391671
 C           -3.30195048        2.39900745       -0.63195594
 C           -2.10697216        3.06007630       -1.09391671
 C           -2.80574919        0.52745025       -2.13103422
 C           -0.11750651        3.06564867       -2.34964486
 C            0.80934899        2.42220098       -3.24716180
 C            0.49305400        1.09819304       -3.72430938
 C           -0.75476284        0.54836730       -3.46074964
 C           -1.36865918        2.50543496       -2.13103422
 C           -1.63890017        1.19073068       -2.56737544
