   70
C70 / DATE: 7/ 1/2024 / Origin: Program Fullerene / C70 from database
 C            1.47060402        0.17864799        5.08958457
 C            0.66166017       -0.99700389        4.82810414
 C            1.48296706       -1.93772615        4.10149610
 C            2.65855050        0.08522332        4.25649499
 C            2.69762774       -1.24651215        3.69678322
 C            2.64651239        1.21710527        3.34990402
 C            0.71873451        1.33995548        4.64767958
 C            1.58001310        2.10887015        3.77498687
 C           -0.57965991       -0.55983149        4.21763107
 C           -0.55721760        0.88863867        4.11756239
 C           -1.10940160       -1.26974241        3.15085363
 C            0.92267079       -2.55499378        2.91579663
 C           -0.41379769       -2.35724651        2.60012377
 C            2.81551445       -1.39094528        2.25921033
 C            1.88189220       -2.41626125        1.84177502
 C            2.84867423        1.02534516        1.98183698
 C            2.95270340       -0.27226213        1.44810141
 C            2.56517232        2.09349919        1.12485662
 C            0.97182918        2.89179114        2.80850282
 C            1.63463482        3.04644700        1.52665418
 C           -1.05096250        1.49501917        2.95711024
 C           -0.43819468        2.66477788        2.51627622
 C           -2.03813261       -0.61255534        2.35132405
 C           -1.81797675        0.73689283        2.05865360
 C           -2.77911932       -1.39008100        1.47745957
 C           -0.83916803       -2.81887323        1.35980313
 C           -2.18544243       -2.64705917        1.07646755
 C            1.38935376       -2.37316101        0.53925671
 C            0.08638446       -2.81643584        0.30151174
 C            2.78419274       -0.45299852        0.07883709
 C            1.97884544       -1.50438888       -0.38343643
 C            2.82320101        1.95420993       -0.23244849
 C            3.05146344        0.62147505       -0.74917976
 C            1.98912177        2.65956478       -1.19801430
 C            0.61720215        3.47928824        0.58649316
 C           -0.67103933        3.12473295        1.16416326
 C            0.81238029        3.27352433       -0.77572695
 C           -2.08366543        1.22232353        0.76304213
 C           -1.59451215        2.47122684        0.36287107
 C           -3.31879750       -0.78227754        0.28144309
 C           -2.77916240        0.42006923       -0.15399539
 C           -2.67164991       -2.96398394       -0.24262039
 C           -3.51008880       -1.85438986       -0.67120939
 C           -0.35994139       -2.88448646       -1.02163873
 C           -1.69658944       -3.18167404       -1.28450033
 C            1.51354665       -1.50828019       -1.70529752
 C            0.42332393       -2.32954101       -2.03858747
 C            2.60181621        0.59137426       -2.11990051
 C            2.00251218        1.87951319       -2.42582517
 C            1.98895555       -0.54846426       -2.61395463
 C            0.91229221        1.90673438       -3.29005717
 C           -0.31652991        3.20530251       -1.58637032
 C           -1.57888503        2.79353644       -0.98808859
 C           -0.23646378        2.60436578       -2.90883905
 C           -2.73005810        0.70459530       -1.52671551
 C           -2.26421029        1.94514145       -1.93983747
 C           -1.55773235        2.06020254       -3.20214772
 C           -3.20025478       -1.60548548       -2.06152310
 C           -2.30412808       -2.66873118       -2.49406467
 C           -2.94019059       -0.30371301       -2.48135940
 C           -0.05026805       -2.37260038       -3.35155408
 C           -1.48658625       -2.42371338       -3.58236878
 C            1.39060788       -0.42336240       -3.86065001
 C            0.79886311        0.86245600       -4.20700379
 C            0.51101916       -1.46701089       -4.32988980
 C           -1.68127428        1.04175176       -4.13089246
 C           -2.45135500       -0.14108532       -3.77932893
 C           -1.81697406       -1.28393566       -4.41562444
 C           -0.48675411        0.59974587       -4.82217454
 C           -0.58865868       -0.83253460       -5.03782566
