   70
C70 / DATE: 7/ 1/2024 / Origin: Program Fullerene / C70 from database
 C            1.03398074        0.01916658        5.39881414
 C            0.35581927       -1.16278179        4.89198835
 C            1.33190135       -1.99166594        4.22752625
 C            2.38945065        0.00604471        4.87820162
 C            2.58103311       -1.24494537        4.17235230
 C            2.59530572        1.24635802        4.16024866
 C            0.36088136        1.18853388        4.85304889
 C            1.34698710        1.99905953        4.18457043
 C           -0.78459237       -0.71962707        4.12405045
 C           -0.77086237        0.72845292        4.08080414
 C           -1.12701259       -1.37486341        2.94795073
 C            1.03830191       -2.45748352        2.88094727
 C           -0.20214136       -2.20397747        2.30013139
 C            3.00571936       -1.22232822        2.78271793
 C            2.21876070       -2.22201835        2.08156859
 C            3.03959295        1.20372673        2.77836780
 C            3.27939105       -0.01485990        2.13269268
 C            1.07427677        2.43856766        2.82525586
 C            2.28709694        2.22334718        2.07020431
 C           -1.08117364        1.32801133        2.86074175
 C           -0.14295348        2.14055759        2.20899189
 C           -2.05294211       -0.73338762        2.14659900
 C           -2.00166761        0.66068541        2.06706987
 C           -2.51402457       -1.41428917        1.03829398
 C           -0.32309081       -2.36811002        0.91239828
 C           -1.56876485       -2.15012019        0.31879513
 C            2.07118264       -2.07467416        0.71200063
 C            0.82913232       -2.32692522        0.11605952
 C            3.27861640       -0.01579512        0.73560365
 C            2.93951922       -1.20150848        0.07648046
 C            2.18655994        2.09875545        0.69847109
 C            3.04046095        1.19640839        0.08526910
 C           -0.21921110        2.26784947        0.81146531
 C            0.96722506        2.37468223        0.07614998
 C           -2.39228058        1.25405835        0.87473228
 C           -1.41428618        1.94218055        0.15320232
 C           -3.54368219       -0.80083476        0.34924298
 C           -3.43374958        0.63759263        0.19621821
 C           -3.94387331       -1.35492224       -0.91974609
 C           -1.68932650       -2.24560396       -1.07148812
 C           -2.96007870       -2.13538807       -1.63372732
 C            0.71230042       -2.17477747       -1.27320164
 C           -0.55054219       -2.06264215       -1.86517468
 C            2.97783884       -1.23072412       -1.30709075
 C            1.84359449       -1.81524581       -2.00513797
 C            3.12469752        1.23970108       -1.29479282
 C            3.33306313       -0.00943198       -1.99644028
 C            0.92354649        2.32418281       -1.31609748
 C            2.08550385        1.96198890       -2.00691148
 C           -1.46577942        1.96703039       -1.25118825
 C           -0.30577834        2.28459894       -1.97475098
 C           -3.64924183        0.93619926       -1.19907043
 C           -4.29816057       -0.23564881       -1.76774461
 C           -2.64266808        1.57460010       -1.91619887
 C           -3.10165511       -1.79605392       -3.03388787
 C           -3.96809491       -0.62246604       -3.12056486
 C           -0.66250205       -1.58689041       -3.18554922
 C           -1.91067424       -1.51364175       -3.80302771
 C            1.68784486       -1.10708892       -3.26261663
 C            2.57632200        0.04328770       -3.23030740
 C            1.98630239        1.36688069       -3.32817995
 C            0.41481236       -0.92357681       -3.78160967
 C           -0.29620373        2.19790629       -3.36597813
 C            0.78728573        1.47773466       -4.00539370
 C            0.18022812        0.25596228       -4.49093302
 C           -2.68505925        1.50878650       -3.30952179
 C           -3.29157430        0.35062044       -3.94947194
 C           -2.21931541       -0.35444614       -4.62086385
 C           -1.49837203        1.80910136       -4.07248409
 C           -1.17320035        0.61612442       -4.85007561
