   70
C70 / DATE: 7/ 1/2024 / Origin: Program Fullerene / C70 from database
 C            1.58928264       -0.05226842        4.70343701
 C            0.79181266       -1.24488891        4.51319612
 C            1.35209977       -1.99973894        3.40313752
 C            2.66622323       -0.08617153        3.73175737
 C            2.48579264       -1.24606534        2.89075253
 C            2.69540034        1.20089627        3.08586678
 C            0.74308908        1.08557251        4.37895564
 C            1.45181409        1.88412638        3.41309853
 C           -0.58959782       -0.82062637        4.40808395
 C           -0.56057113        0.57904503        4.01341152
 C           -1.44796583       -1.65731291        3.72585114
 C            0.46014277       -2.59389234        2.50861706
 C           -0.86150246       -2.72568186        2.93103094
 C            0.74693103       -2.56442702        1.13371094
 C            2.61241627       -1.09226294        1.51839386
 C            1.94760850       -1.99326150        0.69840105
 C            3.11664802        1.27902826        1.76590639
 C            3.09361111        0.11235857        0.97623772
 C            2.84775791        2.49063796        1.15142924
 C            0.74954032        2.46391555        2.36302667
 C            1.54156155        3.07747095        1.40058726
 C           -1.12456044        0.95374159        2.78821255
 C           -0.47978986        1.90015118        1.97148443
 C           -2.44617298       -1.05434926        2.87076117
 C           -2.16275702        0.17185634        2.26451790
 C           -1.87461567       -3.13096040        1.98413045
 C           -2.93918657       -2.14028104        2.05778854
 C           -0.22123790       -2.94650199        0.18836630
 C           -1.50958799       -3.26274352        0.59145053
 C           -0.00500822       -2.68840792       -1.16414864
 C            2.28670231       -2.03734984       -0.64322010
 C            1.29753599       -2.48533590       -1.60109731
 C            3.26047671        0.20596343       -0.41836397
 C            2.98629682       -0.90206083       -1.21750637
 C            3.15073700        2.64741651       -0.24696372
 C            3.35209709        1.45249106       -1.03395462
 C            0.97517437        3.42203528        0.11872992
 C            2.05540552        3.39162298       -0.84355546
 C           -0.98917488        2.15239977        0.69016742
 C           -0.23947003        2.87102791       -0.24851903
 C           -2.67920750        0.45263120        0.99093509
 C           -2.19521666        1.57044829        0.29839348
 C           -3.33795206       -1.84083210        0.70887634
 C           -2.61515785       -2.73491843       -0.17864541
 C           -3.45380273       -0.51601559        0.32133286
 C           -1.08884160       -2.39124252       -2.00547401
 C           -2.38106759       -2.29118963       -1.47613956
 C           -0.85593856       -1.93176250       -3.30288387
 C            1.54628150       -1.79284119       -2.84983379
 C            2.48438134       -0.70983641       -2.57354400
 C            0.49302704       -1.58628636       -3.72439788
 C            2.68590040        1.67119927       -2.30774995
 C            1.78952912        2.80640466       -2.13915510
 C            2.23821744        0.58103227       -3.04991379
 C           -0.55372279        2.77834199       -1.60591935
 C            0.47206581        2.66286481       -2.55530928
 C           -2.73515660        1.91388047       -0.94030072
 C           -1.86127148        2.47308632       -1.95769819
 C           -3.76544699       -0.32927093       -1.01633380
 C           -3.23270050       -1.29820350       -1.96208907
 C           -3.62459620        0.98324615       -1.59458663
 C           -1.76814885       -0.96331472       -3.89270789
 C           -2.13139266        1.79033212       -3.21390440
 C           -2.90589938       -0.59543436       -3.18829601
 C           -3.18035641        0.81735385       -2.96867705
 C            0.42678681       -0.33139853       -4.44393363
 C            1.19458060        0.79559825       -3.95019198
 C            0.26671409        1.88523401       -3.68854583
 C           -0.96706413        0.07292267       -4.52077179
 C           -1.06950254        1.44080166       -4.03570405
