   70
C70 / DATE: 7/ 1/2024 / Origin: Program Fullerene / C70 from database
 C            1.52174388        0.01277181        4.53728993
 C            0.72731074       -1.14682675        4.17730764
 C            1.47966067       -1.92565691        3.22316357
 C            2.68226171        0.03864180        3.66383355
 C            2.65431593       -1.15033817        2.84818334
 C            2.70051268        1.31350650        2.99346677
 C            0.72903903        1.19681138        4.25245779
 C            1.51183495        2.05313757        3.39379384
 C           -0.57801811       -0.68456299        3.77830172
 C           -0.56619094        0.76843395        3.77640814
 C           -1.21188254       -1.31559484        2.72201949
 C            0.79813536       -2.59609073        2.21253028
 C           -0.56587757       -2.33388997        2.00181081
 C            1.56671894       -3.01899703        1.13959728
 C            2.97810065       -1.06178943        1.49626621
 C            2.68499852       -2.18343369        0.72694499
 C            3.07803403        1.37620683        1.65725556
 C            3.05178884        0.20156552        0.87483053
 C            2.86620771        2.60465350        1.04505656
 C            0.86418973        2.80426509        2.41879864
 C            1.67682582        3.34788912        1.42605466
 C           -1.13487918        1.42914174        2.68806813
 C           -0.48476614        2.53999585        2.12907640
 C           -2.24355016       -0.62758751        2.10827949
 C           -2.11922753        0.75976349        1.94982665
 C           -3.09605126       -1.35772683        1.30243615
 C           -1.21490149       -2.86850712        0.87404625
 C           -2.55797753       -2.54017548        0.65627578
 C            0.91823511       -3.51411230       -0.05351761
 C           -0.46662020       -3.44650006       -0.16098709
 C            2.62907940       -2.07279993       -0.71347467
 C            1.74511215       -3.12098541       -1.18454316
 C            2.96793228        0.28921888       -0.53009419
 C            2.55370644       -0.81078394       -1.27846619
 C            3.03540207        2.72836127       -0.38041346
 C            3.04493994        1.51989124       -1.16887793
 C            1.09134455        3.90622453        0.22144607
 C            1.97265101        3.58485011       -0.88418952
 C           -1.09444818        3.20750022        1.07061886
 C           -0.27817876        3.82106553        0.03617078
 C           -2.77559734        1.42268332        0.90429380
 C           -2.24919423        2.61337505        0.42209782
 C           -3.93784535       -0.66277208        0.35915189
 C           -3.63669956        0.72073979        0.06741032
 C           -3.12233072       -2.60270844       -0.68304760
 C           -3.91538693       -1.40460012       -0.88833994
 C           -1.03732516       -3.63374865       -1.41965714
 C           -2.33064691       -3.05368941       -1.72348949
 C            1.15408362       -2.98573188       -2.42885622
 C           -0.20424452       -3.46760282       -2.59943535
 C            1.87242586       -0.62393231       -2.48922133
 C            1.26115490       -1.71010694       -3.11937919
 C            2.20526861        1.75201174       -2.32767557
 C            1.41868311        2.94812861       -2.06333215
 C            1.58175112        0.66885707       -2.93408863
 C           -0.80926819        3.40873506       -1.25726001
 C           -2.09833185        2.77966548       -1.01648593
 C            0.03766240        2.89932717       -2.24251118
 C           -3.47000355        0.84875290       -1.37259467
 C           -3.53413908       -0.48697616       -1.94736805
 C           -2.55027107        1.77178993       -1.86513506
 C           -2.16708266       -2.21784038       -2.90595640
 C           -0.89127775       -2.56384006       -3.50676836
 C            0.02718175       -1.50004188       -3.85984601
 C           -2.57465611       -0.88279101       -2.87353246
 C            0.38733479        0.90343460       -3.61018624
 C           -0.46772593        1.99134503       -3.16642910
 C           -1.81219004        1.45748425       -3.00338378
 C           -0.46540264       -0.21059000       -3.98070216
 C           -1.81343913        0.09310528       -3.51532379
