   70
C70 / DATE: 7/ 1/2024 / Origin: Program Fullerene / C70 from database
 C            1.35008135       -0.14784937        4.51601697
 C            2.63406895       -0.42890893        3.90319159
 C            2.59618366       -1.78589707        3.38769098
 C            0.50681461       -1.32028845        4.34711544
 C            1.29399441       -2.35245980        3.69872689
 C           -0.73574617       -0.89342943        3.72545581
 C            0.59849536        1.01044340        4.06498037
 C           -0.72332592        0.55818406        3.66909805
 C            1.23069541        1.97741937        3.29634428
 C            3.10448190        0.43903224        2.83914673
 C            2.51730702        1.68607233        2.67144914
 C            3.03380110       -1.75424050        1.99976612
 C            3.35182399       -0.37990585        1.66176470
 C            2.36510033       -2.53455808        1.06682643
 C            0.68107866       -3.14652227        2.74153230
 C            1.40226420       -3.43597422        1.51749660
 C           -1.23943819       -1.61042375        2.63870298
 C           -0.68874451       -2.85247756        2.34127303
 C           -1.99870060       -0.93823117        1.67496163
 C           -1.37577313        1.17642988        2.61102171
 C           -2.27481187        0.41553151        1.87328460
 C            0.44177193        2.74004427        2.34313835
 C           -0.85621993        2.34687421        2.04479495
 C            2.49283760        2.26801825        1.34349480
 C            1.31275606        3.11131614        1.25005346
 C            3.00463224        0.11288073        0.40503229
 C            2.84618686        1.49172394        0.24357684
 C            2.33146697       -2.12020627       -0.26522206
 C            2.51951021       -0.76660264       -0.57392975
 C            1.75075363       -2.96721158       -1.20525672
 C            0.41848006       -3.93878583        0.58173953
 C           -0.87247175       -3.41638693        1.01655970
 C            0.72195908       -3.90044241       -0.76751361
 C           -2.22000252       -1.51079639        0.41236970
 C           -1.68489816       -2.76169252        0.09406741
 C           -2.87865368       -0.77153409       -0.57482782
 C           -3.11801483        1.07634365        0.99594128
 C           -3.54267122        0.39188984       -0.20728128
 C           -1.45364171        2.84932783        0.88786281
 C           -2.75172216        2.42316848        0.61125617
 C            0.75496426        3.32464398       -0.00433264
 C           -0.63727183        3.35418797       -0.14138971
 C            2.55127918        1.99659356       -1.01371504
 C            1.54251924        3.03877558       -1.11842081
 C            2.19587529       -0.28003338       -1.84771611
 C            2.34243469        1.07815251       -2.11391591
 C            1.35372224       -2.44108648       -2.49701033
 C            1.51743437       -1.08756924       -2.76516525
 C           -0.38210662       -3.79403554       -1.69805066
 C           -1.59693301       -3.14214313       -1.24349441
 C            0.09579689       -3.07178038       -2.85827295
 C           -2.59333929       -1.00578535       -1.92311315
 C           -2.00818146       -2.21486453       -2.28432277
 C           -0.98649280       -2.22715255       -3.32286562
 C           -2.55569846        0.06176965       -2.82755955
 C           -3.80492097        1.40638960       -1.21097350
 C           -3.35536996        2.68443325       -0.67743085
 C           -3.22077099        1.24548478       -2.52577385
 C           -1.17127055        3.63053486       -1.40189242
 C           -2.56157554        3.33885088       -1.69019749
 C           -2.59783725        2.51011609       -2.88358994
 C            0.93384702        2.93668504       -2.43310284
 C            1.45027453        1.72837596       -3.06047408
 C           -0.40223895        3.28372967       -2.58502632
 C           -1.26128318        2.49417455       -3.45555654
 C            0.69113203       -0.50127450       -3.72683659
 C           -0.65114164       -1.02784085       -3.92796314
 C           -1.56441708        0.09061028       -3.80555778
 C            0.61647148        0.94584148       -3.84378723
 C           -0.78661084        1.30434126       -3.99419492
