   70
C70 / DATE: 7/ 1/2024 / Origin: Program Fullerene / C70 from database
 C            1.17235448        0.25594277        4.79257004
 C            2.44512307        0.04803602        4.13640466
 C            2.54482057       -1.36756385        3.83788242
 C            0.38216301       -0.95701176        4.61977135
 C            1.20946915       -1.93141793        3.94423055
 C           -0.87389620       -0.58173183        4.01217440
 C            0.35722802        1.37127160        4.36548304
 C           -0.97730526        0.85893336        4.10125467
 C            0.75686167        2.13411688        3.19428734
 C            2.73739711        0.77106412        2.90845738
 C            1.83973560        1.72349724        2.41541171
 C            3.24348669       -1.50405723        2.57201611
 C            3.33246709       -0.17593132        1.98149060
 C            2.89270354       -2.56766460        1.75663431
 C            0.70579573       -2.62780148        2.84852708
 C            1.64203377       -3.25538395        2.03318475
 C           -1.26339208       -1.18805795        2.82542189
 C           -0.55096989       -2.28468150        2.31482439
 C           -2.17955245       -0.52333919        2.01233671
 C           -1.49500279        1.57747480        2.95086728
 C           -0.47034617        2.51480327        2.52936163
 C           -2.17422826        0.87341021        1.95731116
 C           -0.42907901        2.83414237        1.18555877
 C            1.82917168        2.00137080        1.04262778
 C            0.78484153        2.76523118        0.50241967
 C            3.08757532       -0.00177128        0.62444329
 C            2.63824755        1.24215479        0.19397103
 C            2.95293573       -2.39318269        0.31909298
 C            2.91918421       -1.11008852       -0.21346595
 C            1.21247337       -3.87769438        0.80342243
 C            2.08816506       -3.40047149       -0.25764061
 C           -1.02098324       -2.92174299        1.15311126
 C           -0.14921024       -3.67323575        0.36811606
 C           -2.80442907       -1.23560659        1.00646927
 C           -2.19685814       -2.47388041        0.55379921
 C           -3.29823273       -0.52512929       -0.15949597
 C           -2.35615848        1.50869417        0.72292377
 C           -1.59212154        2.64726254        0.45658605
 C           -2.96881372        0.81770580       -0.32969752
 C           -1.65215846        3.24087943       -0.78958208
 C            0.78795940        3.09157915       -0.85967504
 C           -0.39174082        3.58366865       -1.42321401
 C            2.61612984        1.48708753       -1.16931647
 C            1.75424111        2.52923144       -1.69142570
 C            2.40756791       -0.91854674       -1.49995706
 C            2.52434129        0.34568385       -2.06243836
 C            1.25135743       -3.03001988       -1.38325783
 C           -0.10458391       -3.42926777       -1.06399476
 C            1.44314470       -1.80025513       -2.00403674
 C           -2.29648940       -2.49783210       -0.89795399
 C           -3.20477309       -1.43113337       -1.28966352
 C           -1.14686639       -2.72804274       -1.65131004
 C           -3.08724991       -0.89130365       -2.55987121
 C           -2.99201639        1.37210557       -1.61455658
 C           -2.50793436        2.66504665       -1.80319951
 C           -3.22599189        0.54360251       -2.71601375
 C           -0.59539358        3.51536998       -2.86112370
 C           -1.96125964        3.06901625       -3.08928049
 C            1.41501091        2.14716861       -3.05556344
 C            1.66283222        0.71882878       -3.16729742
 C            0.28524236        2.68248405       -3.65697916
 C            0.41780221       -1.30814870       -2.81671222
 C           -0.86328781       -1.87478007       -2.71701034
 C           -1.93860518       -1.27515791       -3.36059079
 C            0.62408434       -0.12727404       -3.53920760
 C           -2.63539623        0.85864504       -4.00668553
 C           -1.93955261        2.11676745       -4.17861235
 C           -0.54717818        1.81404809       -4.47407395
 C           -1.69723252       -0.21047738       -4.31105966
 C           -0.37565798        0.37336049       -4.36848164
