   70
C70 / DATE: 7/ 1/2024 / Origin: Program Fullerene / C70 from database
 C            1.15097182       -0.09184964        4.55552847
 C            2.52895285       -0.32199234        4.16854573
 C            2.59828598       -1.64631899        3.57550696
 C            0.37070870       -1.24781352        4.13305533
 C            1.23539156       -2.11158464        3.36882724
 C           -0.83265041       -0.76166701        3.50537872
 C            0.46833141        1.09659307        4.07578573
 C           -0.84601900        0.68158319        3.63124146
 C            1.15967838        2.04270789        3.33291428
 C            3.17288040        0.60446685        3.25441064
 C            2.52676037        1.78452590        2.89539660
 C            3.48667989       -1.57757358        2.42932471
 C            3.85929630       -0.18165677        2.24085619
 C            3.17786177       -2.35412622        1.32195863
 C            0.85236471       -2.51445021        2.09059148
 C            1.85413363       -2.95485193        1.23815418
 C           -1.25660498       -1.30839653        2.29713677
 C           -0.38876555       -2.12230935        1.55292210
 C           -2.27468713       -0.63320777        1.63215058
 C           -1.50214691        1.38830035        2.63534151
 C           -2.50404526        0.71003841        1.95855615
 C            0.47023596        2.73680347        2.25796704
 C           -0.85325134        2.42778802        1.95639779
 C            2.66763275        2.30666718        1.54515104
 C            1.39861733        2.89781867        1.15743969
 C            4.00748708        0.32801080        0.95352851
 C            3.40495751        1.60511805        0.60339171
 C            3.52285582       -1.88078622       -0.00784442
 C            3.87702895       -0.55432778       -0.19635035
 C            1.55757724       -3.15809077       -0.15613296
 C            2.59284894       -2.49600865       -0.93252258
 C           -0.70207269       -2.42142848        0.21028708
 C            0.24881811       -3.05706057       -0.60357499
 C           -2.74805155       -1.14108885        0.42649115
 C           -1.89735564       -1.93472928       -0.35523926
 C           -3.89556141       -0.57187092       -0.12278385
 C           -3.32728022        1.47097483        1.14959441
 C           -4.21686711        0.79311691        0.23517544
 C           -1.34984117        2.80903286        0.70338346
 C           -2.70136898        2.57161820        0.44620245
 C            0.91329324        2.73477862       -0.13600280
 C           -0.44881611        2.94486951       -0.36319203
 C            2.90789998        1.50794703       -0.75768596
 C            3.25568191        0.19810038       -1.27540768
 C            1.66900038        2.04359924       -1.09221656
 C            2.19935237       -1.82307146       -2.08233776
 C            2.36435817       -0.43033005       -2.14403143
 C            0.09030097       -3.02593135       -1.98197993
 C            1.14007953       -2.39807530       -2.77293343
 C           -2.16838711       -2.13075438       -1.72207924
 C           -1.17931265       -2.64461800       -2.54769201
 C           -4.15244613       -0.70421969       -1.53688526
 C           -3.18965696       -1.41475499       -2.34096396
 C           -4.26460433        1.57351883       -0.98844224
 C           -3.20293033        2.56360700       -0.91697662
 C           -4.28905854        0.63627829       -2.09322323
 C           -0.90552740        2.93540805       -1.67843307
 C           -2.30793216        2.69542492       -1.96826680
 C            1.05172208        1.60181836       -2.26170629
 C            1.40478955        0.35655333       -2.79659718
 C           -0.11535364        2.23765897       -2.67428608
 C            0.50809781       -1.65037746       -3.83563277
 C           -0.90661953       -1.97004195       -3.80678647
 C            0.63241295       -0.21224680       -3.80665431
 C           -2.86584294       -0.57333358       -3.48358248
 C           -3.31064165        0.76861513       -3.15745778
 C           -2.38337708        1.80662791       -3.12274357
 C           -1.02576641        1.57536456       -3.59313954
 C           -1.63924880       -0.75452200       -4.10709300
 C           -0.67525527        0.34013230       -4.11971533
