   70
C70 / DATE: 7/ 1/2024 / Origin: Program Fullerene / C70 from database
 C            1.40914179       -0.01850420        5.52728762
 C            0.51709910       -1.14873230        5.71657797
 C            1.13174047       -2.30704046        5.09247431
 C            2.50421090       -0.45148122        4.67537393
 C            2.33340563       -1.86047041        4.40766896
 C            2.56107676        0.45176064        3.54242880
 C            0.67820350        1.00782447        4.80308274
 C            1.49992454        1.43154068        3.68858561
 C           -0.71309799       -0.86320448        4.99854298
 C           -0.64209658        0.50033124        4.49811255
 C            0.21619558       -2.80366653        4.07894504
 C           -0.93673317       -1.93034876        4.03631251
 C            2.22992888       -2.27979858        3.02345303
 C            0.96603942       -2.97297749        2.85178367
 C            2.79149277       -0.05025079        2.26387432
 C            2.62573784       -1.41713098        2.00417875
 C            2.58006042        0.82494416        1.20202955
 C            0.86633210        1.85220689        2.52323206
 C            1.60554714        1.81975148        1.34969620
 C           -1.14831731        0.74898755        3.22779287
 C           -0.51622390        1.69514317        2.41402054
 C           -1.43043878       -1.57878127        2.78554150
 C           -1.85863409       -0.26840730        2.59875495
 C            0.30419196       -2.78541669        1.64215793
 C           -0.99865662       -2.28504103        1.65784177
 C            2.26482447       -1.77495528        0.70809058
 C            1.08165259       -2.50227008        0.52858628
 C            2.88468270        0.38133986       -0.08153267
 C            2.71950931       -0.98038324       -0.34023690
 C            2.76972782        1.30468437       -1.11464710
 C            1.04458704        2.38232595        0.20899352
 C            1.81315413        2.38063208       -0.94457123
 C           -1.12601376        1.98518975        1.18881981
 C           -0.34911228        2.44059109        0.11197900
 C           -2.47052169        0.03445485        1.39497243
 C           -2.32162313        1.33013594        0.91190178
 C           -1.60460777       -1.96334482        0.43866945
 C           -2.60353405       -0.99565966        0.47005243
 C            0.45660059       -2.46861534       -0.71258669
 C           -0.90729675       -2.16458264       -0.76291997
 C            2.44006098       -1.41440740       -1.63120164
 C            1.25464424       -2.22727654       -1.81997209
 C            2.69493447        0.85671248       -2.49270241
 C            2.53118038       -0.49424725       -2.74934555
 C            1.18905310        2.62991683       -2.22462167
 C            1.88815923        1.82474549       -3.21670704
 C           -0.96411595        2.64151158       -1.13590775
 C           -0.19288022        2.76436667       -2.29931295
 C           -3.02676317        1.68188915       -0.22697869
 C           -2.34379942        2.46249693       -1.24145574
 C           -3.32016284       -0.73890105       -0.68688343
 C           -3.75335243        0.62782903       -0.90988695
 C           -1.49678328       -1.75307062       -1.97078608
 C           -2.79194696       -1.23484706       -1.94386462
 C            0.64659541       -1.84565868       -3.07488597
 C            1.55539986       -0.92084696       -3.73830584
 C           -0.72447022       -1.62137731       -3.13252187
 C            1.20421260        1.43014066       -4.35893493
 C            1.03166834        0.00639055       -4.62942639
 C           -0.79815019        2.68614232       -3.55546486
 C           -0.05445711        2.08904033       -4.65481525
 C           -2.93840823        2.11872023       -2.52356227
 C           -3.69341506        0.89078551       -2.33241068
 C           -3.23445985       -0.32356216       -2.98753263
 C           -2.17645220        2.24282616       -3.67294766
 C           -1.23970673       -0.95681566       -4.24754102
 C           -0.33085739       -0.19148880       -5.08804716
 C           -0.91540647        1.11894640       -5.30613733
 C           -2.47208485       -0.19591502       -4.13626278
 C           -2.19639562        1.14517354       -4.62689764
