   70
C70 / DATE: 7/ 1/2024 / Origin: Program Fullerene / C70 from database
 C            1.17721770       -0.03776678        4.65524414
 C            2.42111972       -0.37297748        4.00229493
 C            2.28295245       -1.72249091        3.47274072
 C            0.32613128       -1.21454028        4.58233426
 C            0.87946665       -2.06340740        3.54862448
 C           -1.03120085       -0.74872787        4.43290101
 C            0.40131992        1.06847581        4.13500925
 C           -0.98658023        0.70404440        4.32200797
 C            0.76947882        1.66590524        2.93163641
 C            2.87631397        0.45729304        2.90518211
 C            2.04426116        1.44886178        2.38268458
 C            2.92080892       -1.73533173        2.17259608
 C            3.54535031       -0.43874284        1.98551070
 C            2.25098494       -2.29524203        1.09268917
 C            0.17742798       -2.25403499        2.35758022
 C            0.88156457       -2.58348502        1.19893905
 C           -1.80520062       -1.22191044        3.30421890
 C           -1.18002114       -1.91587554        2.26367160
 C           -1.94517448        1.07866326        3.29714768
 C           -2.68643748       -0.12570724        2.96907155
 C           -0.20716079        2.32127161        2.17875574
 C           -1.54349155        1.91336843        2.25445189
 C            0.19524229        3.13596852        1.13283812
 C            2.34999426        1.97416936        1.12274947
 C            1.51326967        2.93210684        0.56142395
 C            3.76284333       -0.00296275        0.68767157
 C            3.23709726        1.29227178        0.28722747
 C            2.80056860       -2.09883674       -0.17214429
 C            3.51092512       -0.92305780       -0.41187381
 C            2.21688977       -2.74598240       -1.25128836
 C            0.17214141       -2.92238121        0.05125907
 C            0.90112563       -3.32233704       -1.06236281
 C           -1.81665415       -1.95838593        1.01591157
 C           -1.13003081       -2.43639494       -0.10429168
 C           -3.33578266       -0.17039681        1.75243717
 C           -3.00438046       -1.24721550        0.83476564
 C           -2.35249812        1.98224159        1.11508390
 C           -3.36507456        1.03632639        0.95196754
 C           -0.72718618        3.40451556        0.04447065
 C           -1.96476224        2.76521237        0.02379869
 C            1.37908765        2.99246065       -0.88551122
 C            0.05731971        3.51097642       -1.17880219
 C            2.97158489        1.23717048       -1.14430834
 C            3.18341583       -0.12728388       -1.58611607
 C            1.90992443        1.96441838       -1.66071265
 C            2.18347580       -2.06202907       -2.53009063
 C            2.34622956       -0.67691069       -2.54885982
 C            0.25908260       -3.37054499       -2.36033880
 C            1.13162546       -2.68622523       -3.30434355
 C           -1.65048397       -2.20319299       -1.38634967
 C           -1.06020586       -2.79641402       -2.49552018
 C           -3.36499519       -0.78574383       -0.49605073
 C           -3.73472122        0.61655003       -0.38315107
 C           -2.60414802       -1.20167665       -1.57990422
 C           -2.64906661        2.64618047       -1.18695626
 C           -3.45909319        1.46540061       -1.43820976
 C           -0.53115474        3.19549960       -2.39228173
 C           -1.96327572        2.97343694       -2.42595145
 C            1.17181983        1.44823820       -2.72944580
 C            1.38860529        0.13496998       -3.17451130
 C            0.09364639        2.18334754       -3.22992309
 C            0.30435878       -1.85098461       -4.14248850
 C           -1.07873439       -2.07864888       -3.75308451
 C            0.51861358       -0.41741485       -4.11742317
 C           -2.58690320       -0.42791753       -2.74817193
 C           -3.01841520        0.89593131       -2.69847513
 C           -2.22722275        1.90714574       -3.37664847
 C           -0.96239729        1.50976889       -3.96926786
 C           -1.75152494       -0.79548054       -3.80007905
 C           -0.78930691        0.17646824       -4.30195913
