   70
C70 / DATE: 7/ 1/2024 / Origin: Program Fullerene / C70 from database
 C            1.60868450        0.12323023        5.00133217
 C            0.81991311       -1.09542155        4.99452791
 C            1.55752205       -2.08972337        4.23997033
 C            2.69458331       -0.04604106        4.04815774
 C            2.71594415       -1.43232192        3.65026505
 C            2.54508436        0.96430224        3.01670747
 C            0.76274558        1.19801027        4.51608113
 C            1.43959568        1.82075705        3.40204513
 C           -0.52778139       -0.75518214        4.57177950
 C           -0.56586541        0.67087497        4.28284419
 C           -1.21484846       -1.62315883        3.73299896
 C            0.87495945       -2.81592943        3.18134225
 C           -0.49864143       -2.68616119        3.03394513
 C            2.71627432       -1.73607350        2.23548738
 C            1.71296355       -2.75307148        1.99871681
 C            2.66976463        0.62293541        1.66410955
 C            2.84306473       -0.71859784        1.29047455
 C            2.17574734        1.53219098        0.71449377
 C            0.67170239        2.34209846        2.37823029
 C            1.29541213        2.52410595        1.15596050
 C           -1.26394555        1.11748629        3.16093194
 C           -0.71333309        2.14496585        2.38128683
 C           -2.18794106       -1.07359070        2.80704538
 C           -2.25889563        0.30321174        2.61630714
 C           -1.07396584       -2.80705628        1.70513204
 C           -2.23564535       -1.94314988        1.64328057
 C            1.13750259       -2.79097673        0.73403335
 C           -0.24727494       -2.88749723        0.59049136
 C            2.60855265       -1.06407550       -0.03612568
 C            1.85156564       -2.20922034       -0.30690679
 C            2.23731249        1.20763721       -0.64903425
 C            2.67492535       -0.06773687       -1.00163250
 C            1.56040587        1.99845478       -1.59009864
 C            0.64580123        3.32768554        0.24030014
 C            0.91853057        3.15441689       -1.16839946
 C           -1.45077536        2.67315205        1.31668522
 C           -0.78838573        3.48989388        0.39811611
 C           -2.97771779        0.76335570        1.52146641
 C           -2.64229670        2.05066333        0.94470782
 C           -2.60177031       -1.39440762        0.41892778
 C           -3.23397589       -0.15526707        0.42092995
 C           -0.79069702       -2.59450281       -0.65780189
 C           -1.95337058       -1.81731109       -0.74272156
 C            1.40006490       -2.41178309       -1.60614700
 C            0.03697479       -2.68499574       -1.77550355
 C            2.64868370       -0.46225968       -2.33313459
 C            2.11329611       -1.77760725       -2.61873969
 C            1.32754103        1.51220391       -2.88389793
 C            2.09465973        0.43662248       -3.32409632
 C            0.16297851        1.88715319       -3.58306192
 C           -0.25819188        3.59226325       -1.88272794
 C           -1.34821537        3.69692486       -0.92430917
 C           -0.71541820        2.78362657       -2.98782853
 C           -3.04960632        2.01088502       -0.45454150
 C           -3.29532000        0.62168909       -0.80620270
 C           -2.42558274        2.83762302       -1.37371319
 C           -2.04816990        2.29821651       -2.66805804
 C           -2.28479104       -1.22431925       -1.96229184
 C           -2.74816225        0.09874769       -1.97570084
 C           -2.35531430        0.97847294       -2.99631897
 C           -0.55626344       -2.56677314       -3.02966954
 C           -1.78056804       -1.79226528       -3.12726545
 C            1.59762517       -1.76422460       -3.97070177
 C            1.64024781       -0.38498195       -4.43447240
 C            0.26156358       -2.26747656       -4.19025211
 C           -0.42164025        0.98842769       -4.47093211
 C           -1.73583849        0.46499639       -4.13209893
 C           -1.68757763       -0.96768831       -4.31022248
 C            0.36314458       -0.08515457       -5.03808444
 C           -0.44755013       -1.29127759       -4.99641815
