   70
C70 / DATE: 7/ 1/2024 / Origin: Program Fullerene / C70 from database
 C            1.35590535        0.05246310        4.92411075
 C            0.57677547       -1.15347060        4.70487111
 C            1.39441534       -2.06803436        3.94875127
 C            2.52603084       -0.01689676        4.06299646
 C            2.60478940       -1.35879139        3.54679568
 C            2.44791265        1.07932856        3.11850798
 C            0.55409855        1.18139210        4.48628244
 C            1.31318703        1.89979994        3.49624276
 C           -0.70079728       -0.76078279        4.14918197
 C           -0.74801073        0.69355543        4.09805400
 C           -1.25755756       -1.47378801        3.08875103
 C            0.83269830       -2.67155843        2.75499119
 C           -0.47545095       -2.38702236        2.35692779
 C            2.75123177       -1.53907857        2.11751286
 C            1.87204267       -2.62976545        1.75149352
 C            2.67518072        0.86649148        1.75227428
 C            2.83123497       -0.43846869        1.25543367
 C            2.27889327        1.88201870        0.87512955
 C            0.63495552        2.52154974        2.46690984
 C            1.38824447        2.85002479        1.35707050
 C           -1.39489428        1.29154846        3.01713072
 C           -0.73177865        2.27573129        2.26629157
 C           -2.35515517       -0.88647057        2.47399091
 C           -2.41794024        0.56571039        2.41762210
 C           -2.83038958       -1.40157833        1.21140421
 C           -0.83506667       -2.71027846        1.03947150
 C           -2.12381379       -2.41684494        0.58447974
 C            1.49639256       -2.71447687        0.42804578
 C            0.17659952       -3.03234181        0.11949584
 C            2.63261556       -0.68455689       -0.10918504
 C            2.21275524       -1.96227407       -0.48788080
 C            2.40753459        1.68530160       -0.50287561
 C            2.47489220        0.38349186       -0.99958727
 C            2.09229972        2.72992791       -1.37154443
 C            0.82460652        3.75891690        0.48423946
 C            1.38242120        3.87564248       -0.84032861
 C           -1.30636942        2.74003136        1.07281114
 C           -0.62186857        3.72957886        0.36682152
 C           -2.89221036        0.94082815        1.09844294
 C           -3.28363279       -0.27483983        0.41090114
 C           -2.22844752        1.93126314        0.39470123
 C           -3.15231482       -0.36372536       -0.96938192
 C           -2.46071975       -2.69397116       -0.73482087
 C           -3.12182691       -1.64838530       -1.50152316
 C           -0.13615048       -3.25594397       -1.22291364
 C           -1.47377945       -3.29502298       -1.60609817
 C            2.02137383       -2.25353463       -1.82550269
 C            0.87160547       -3.06972046       -2.17677955
 C            2.12188929        0.13255676       -2.33212723
 C            2.10383380       -1.17965979       -2.79281389
 C            1.51391141        2.42165356       -2.66784152
 C            1.40000303        1.09177068       -3.04127404
 C            0.29116835        4.20079912       -1.73852049
 C           -0.95220184        3.96195772       -1.02313143
 C            0.34658327        3.26642904       -2.84272289
 C           -2.25386778        1.89214994       -1.00509837
 C           -2.54079829        0.68969003       -1.66678520
 C           -1.68688525        2.93552017       -1.73217953
 C           -0.94434691        2.61441897       -2.93839783
 C            0.24462757        0.69881848       -3.71918569
 C           -2.00765599        0.48464357       -2.94925334
 C           -0.96587541        1.30040773       -3.37544306
 C           -2.78012301       -1.83632639       -2.89207847
 C           -1.86475273       -2.96393277       -2.96824836
 C           -2.17914633       -0.73151703       -3.60205146
 C            0.54388076       -2.76574347       -3.55777515
 C            1.22169538       -1.52451154       -3.89817655
 C            0.21215228       -0.56340098       -4.29859803
 C           -0.84471429       -2.63674317       -3.94254764
 C           -1.06189507       -1.26195384       -4.36546654
