   70
C70 / DATE: 7/ 1/2024 / Origin: Program Fullerene / C70 from database
 C            1.35406869        0.13029408        4.70498971
 C            2.51712469       -0.01431083        3.85579528
 C            2.48709855       -1.35584359        3.29696251
 C            0.50933735       -1.03655991        4.49565698
 C            1.16786518       -1.89850239        3.52668606
 C           -0.83443185       -0.56751569        4.20471236
 C            0.52789729        1.30845520        4.54468832
 C           -0.85097258        0.86900930        4.39889981
 C            0.79882506        2.21912441        3.44541686
 C            2.70683610        0.90886134        2.74768782
 C            1.75847971        1.89336198        2.48228021
 C            2.95463985       -1.26556045        1.93184942
 C            3.22813604        0.12958992        1.64614979
 C            2.31932030       -2.00484640        0.94103593
 C            0.43540484       -2.35493075        2.43505575
 C            1.07595855       -2.60011311        1.21198635
 C           -1.49508891       -1.09219374        3.10206875
 C           -0.94689106       -2.20030073        2.45634470
 C           -2.41112416       -0.29202291        2.41700439
 C           -1.46631939        1.69895486        3.37527483
 C           -0.49298271        2.71544085        3.01318430
 C           -2.21246685        1.08849105        2.36687027
 C           -0.58740306        3.29573511        1.76302511
 C            1.59957750        2.35488948        1.17108319
 C            0.57406544        3.25386108        0.89128453
 C            3.00968172        0.55973427        0.34732108
 C            2.25793847        1.71562785        0.11292448
 C            2.64161269       -1.69263239       -0.37696363
 C            3.08225690       -0.39491468       -0.66078027
 C            2.11548414       -2.48752312       -1.38401282
 C            0.34101197       -3.17434416        0.16273218
 C            0.87852180       -3.19485602       -1.12395650
 C           -1.70227618       -2.85349277        1.49668268
 C           -1.03935972       -3.33268020        0.29759255
 C           -3.23152037       -0.88813711        1.47031863
 C           -2.96966371       -2.26774517        1.10271456
 C           -3.54583554       -0.15884351        0.25649059
 C           -2.41827582        1.77338940        1.16331672
 C           -1.73016841        2.96562885        0.93515694
 C           -3.08765902        1.14771746        0.10388599
 C            0.08736189        3.38163136       -0.47139460
 C           -1.36608036        3.33106318       -0.41795356
 C            1.95140275        2.05644187       -1.21138828
 C            0.75308228        2.72124530       -1.49810212
 C            3.13344972        0.06100788       -1.97031932
 C            2.63057605        1.39559970       -2.23348367
 C            2.08197779       -2.00349087       -2.75345198
 C            2.70384181       -0.80019924       -3.05608089
 C           -0.00367638       -2.95655061       -2.25579194
 C            0.76569301       -2.31052788       -3.30166506
 C           -1.89989880       -3.03038241       -0.83855521
 C           -3.09099481       -2.38357212       -0.33948274
 C           -3.43066275       -1.08242893       -0.86476364
 C           -1.31470086       -2.56473707       -2.00901388
 C           -2.81783035       -0.64124646       -2.03123493
 C           -1.83175781       -1.42673512       -2.64999714
 C           -2.96694873        1.65373274       -1.19157080
 C           -2.05215976        2.75012172       -1.46737123
 C           -2.88266496        0.72047206       -2.30515794
 C            0.06489034        2.45896157       -2.68973439
 C           -1.32836419        2.42122688       -2.68157962
 C           -2.01260359        1.30214768       -3.30881480
 C            2.08443016        1.40410386       -3.57533807
 C            2.16173361        0.04875202       -4.10138347
 C            0.73152005        1.87948230       -3.76413413
 C            0.12975454       -1.41005448       -4.14500975
 C           -1.20930927       -0.95210037       -3.80761312
 C           -1.29076274        0.46241572       -4.14113919
 C            0.87212026       -0.28124909       -4.67765969
 C            0.02787760        0.89457195       -4.57023124
