   70
C70 / DATE: 7/ 1/2024 / Origin: Program Fullerene / C70 from database
 C            1.31193029        0.06534789        5.18645236
 C            0.55792218       -1.07923113        4.71317039
 C            1.49686653       -1.95430719        4.05482693
 C            2.57993106        0.07823752        4.47078305
 C            2.71598432       -1.19320391        3.80541698
 C            2.61104325        1.28135803        3.66622102
 C            0.58554969        1.25880211        4.79905834
 C            1.52783974        2.13375223        4.13628571
 C           -0.57712456       -0.59124064        3.94713906
 C           -0.59753228        0.85725813        4.05729518
 C           -0.87733573       -1.16997016        2.71504976
 C            1.10571111       -2.53388228        2.79064542
 C           -0.16995412       -2.29728437        2.27572554
 C            2.94367955       -1.20958355        2.37053558
 C            2.22028839       -2.35762753        1.88520896
 C            2.87307180        1.20992256        2.29106552
 C            2.87193738       -0.02931669        1.63166682
 C            2.69708694        2.37151014        1.55125954
 C            1.01502950        3.05977472        3.24804193
 C            1.83441578        3.40197083        2.10342941
 C           -0.96018001        1.61165756        2.94353044
 C           -0.33710320        2.84453493        2.74228729
 C           -1.59027139       -0.41652368        1.78366453
 C           -1.57574677        0.97944115        1.85900529
 C           -2.02994884       -1.03148148        0.61645510
 C           -0.38737973       -2.74392654        0.97053199
 C           -1.49961033       -2.27645413        0.26926985
 C            1.91137333       -2.42600300        0.54466456
 C            0.74387799       -3.09816827        0.23848212
 C            2.54398043       -0.11606315        0.26553428
 C            2.26352657       -1.36781822       -0.29680900
 C            2.42583254        2.28621540        0.12701552
 C            2.31254251        1.03904223       -0.48507268
 C            0.94119975        3.83780278        1.05416663
 C           -0.40885799        3.46890812        1.43590883
 C            1.44701401        3.31068291       -0.19730737
 C           -1.91043794        1.72841639        0.72776889
 C           -1.20391974        2.90230293        0.45214814
 C           -2.72220550       -0.27936548       -0.33167189
 C           -2.60442368        1.11384649       -0.32076141
 C           -3.26388324       -0.92887766       -1.43832747
 C           -1.75330580       -2.80410242       -1.00006764
 C           -2.78668701       -2.26101389       -1.76256498
 C            0.58927732       -3.46422547       -1.07856187
 C           -0.74933495       -3.55688865       -1.61236285
 C            1.84567661       -1.45823534       -1.63187314
 C            1.35486935       -2.69975089       -2.04102346
 C            1.61807330        0.95104217       -1.69951583
 C            1.41793527       -0.29964064       -2.29946092
 C            0.52244766        3.01380480       -1.18249234
 C           -0.83145219        3.13721051       -0.86394865
 C            0.88042611        2.06147372       -2.12722803
 C           -2.75451508        1.82678077       -1.51309518
 C           -1.75882098        2.83028385       -1.84351398
 C           -3.45191092       -0.20519045       -2.68630489
 C           -3.10459649        1.13504785       -2.74220012
 C           -2.77920619       -2.39139111       -3.21312017
 C           -3.04114431       -1.07973826       -3.77563082
 C           -0.57844104       -3.52875468       -3.05324589
 C            0.67545865       -2.83049252       -3.30880574
 C           -1.60086443       -2.91703824       -3.87031339
 C            0.68789813       -0.39099211       -3.50107784
 C           -1.89409275       -0.70466736       -4.59351321
 C            0.35676648       -1.63216674       -4.04034712
 C           -0.97346912       -1.82454078       -4.59682510
 C            0.08473160        1.97320354       -3.25819100
 C           -1.25715539        2.51674822       -3.16586276
 C           -2.17120990        1.56933611       -3.76943224
 C            0.00154790        0.72149656       -3.97660325
 C           -1.37062143        0.57194550       -4.45257878
