   70
C70 / DATE: 7/ 1/2024 / Origin: Program Fullerene / C70 from database
 C            1.67219057        0.07658294        4.48183156
 C            0.87258681       -1.12817820        4.42280690
 C            1.29480753       -1.90602944        3.26667426
 C            2.63387181        0.01123784        3.40046235
 C            2.38574313       -1.19314395        2.63141889
 C            2.57064678        1.27224077        2.69798757
 C            0.78595443        1.19817162        4.21009070
 C            1.34372071        1.93453092        3.09962534
 C           -0.51574859       -0.72023032        4.48968327
 C           -0.55599783        0.67676764        4.08088757
 C           -1.44514265       -1.57915067        3.93507071
 C            0.30455258       -2.49005230        2.48193196
 C           -0.95230929       -2.63694048        3.06721066
 C            0.41613964       -2.44914615        1.08119421
 C            2.41328255       -1.08974405        1.24772337
 C            1.53814273       -1.85659515        0.48121126
 C            2.85413840        1.27416289        1.34436139
 C            2.97846132        0.05020404        0.67881875
 C            2.39389047        2.35685173        0.60992707
 C            0.50584515        2.39568759        2.08766713
 C            1.12154283        2.85049734        0.91954346
 C           -1.32413092        1.03338229        2.97143044
 C           -0.83101624        1.95882911        2.03077296
 C           -2.57767912       -1.00605845        3.23877549
 C           -2.44848175        0.25975984        2.66985410
 C           -2.06979695       -3.06260777        2.25851372
 C           -3.13474277       -2.08493006        2.44462997
 C           -0.62767404       -2.92729350        0.27555323
 C           -1.87155766       -3.21494784        0.83789303
 C           -0.55873990       -2.76502862       -1.10716489
 C            1.62401816       -1.76877583       -0.91157569
 C            0.63641158       -2.36858618       -1.70228810
 C            3.17945180        0.07954603       -0.69822043
 C            2.57042542       -0.90421991       -1.48619065
 C            2.91254472        2.49873817       -0.66916967
 C            3.49714401        1.31524154       -1.26404890
 C            2.13473322        3.15869189       -1.70201410
 C            0.32796062        3.40271238       -0.07578472
 C            0.80559168        3.44898559       -1.44671801
 C           -1.63380231        2.33687230        0.94284026
 C           -1.07690375        3.05803993       -0.11075529
 C           -3.24618736        0.59745059        1.58375287
 C           -2.81983906        1.65562698        0.69246966
 C           -3.68502412       -1.78138066        1.13703871
 C           -3.06575249       -2.69932132        0.19617577
 C           -3.85738437       -0.45096719        0.77562194
 C           -1.74454782       -2.64654070       -1.83688917
 C           -2.97870323       -2.34971148       -1.13974481
 C           -1.75731571       -1.82054833       -3.02444663
 C            0.63613903       -2.17498222       -3.08311297
 C           -0.56975823       -1.65809725       -3.70423726
 C            2.75044935       -0.88645967       -2.86936031
 C            1.74339103       -1.48713366       -3.71237604
 C            3.45919492        1.49347609       -2.69857439
 C            2.48040008        2.53668718       -2.96960536
 C            3.12539831        0.35394026       -3.52302843
 C           -0.22540239       -0.32703816       -4.14910100
 C            1.16957965       -0.41798009       -4.52172480
 C            1.42382066        1.93123219       -3.75869532
 C            2.00234197        0.74635339       -4.35847010
 C           -0.22259706        2.85868773       -2.29254666
 C           -1.40312290        2.67075591       -1.47731794
 C            0.12903132        1.89585993       -3.23353444
 C           -0.68422089        0.76414490       -3.40352372
 C           -3.11956624        1.24486941       -0.67188575
 C           -3.73675493       -0.06708062       -0.62205792
 C           -3.38371441       -1.01588962       -1.56828289
 C           -2.50649037       -0.63026766       -2.66278810
 C           -2.21577829        1.56568975       -1.68330501
 C           -1.84766135        0.60254883       -2.63291108
