   70
C70 / DATE: 7/ 1/2024 / Origin: Program Fullerene / C70 from database
 C            1.63130556       -0.03720244        4.57694015
 C            0.81653238       -1.23040136        4.45948794
 C            1.32710128       -2.02966926        3.35498934
 C            2.65270992       -0.10433639        3.55198305
 C            2.48632475       -1.34578142        2.81714499
 C            2.60783846        1.13427828        2.79794392
 C            0.78337618        1.10273300        4.27370659
 C            1.38964768        1.83176549        3.17236282
 C           -0.57017150       -0.80900228        4.41245236
 C           -0.57373898        0.61537815        4.10954067
 C           -1.45895635       -1.62608963        3.73674866
 C            0.40848869       -2.61126190        2.48512764
 C           -0.91515153       -2.69730254        2.91816185
 C            0.69809939       -2.68077235        1.11159941
 C            2.66582946       -1.30147413        1.44382902
 C            1.88402144       -2.10880064        0.61571855
 C            2.92832382        1.07854085        1.45072176
 C            3.25416981       -0.16278868        0.90340661
 C            2.39102500        2.04894668        0.60988274
 C            0.56547700        2.31673254        2.15873709
 C            1.11395218        2.54036819        0.88979963
 C           -1.31413976        1.08440339        3.02638298
 C           -0.81601252        2.15881944        2.28572994
 C           -2.50463740       -1.00974066        2.94369360
 C           -2.32573996        0.28839557        2.47915555
 C           -1.95096208       -3.06751856        1.98186940
 C           -2.96369564       -2.02114166        2.01488162
 C           -0.24828080       -3.22301417        0.22687566
 C           -1.58653315       -3.27583617        0.60187308
 C            0.00881796       -3.22653949       -1.13702401
 C            2.15640790       -2.11487569       -0.75829622
 C            1.26679533       -2.71596153       -1.63620635
 C            3.67121082       -0.20924571       -0.41579977
 C            3.10446956       -1.23254877       -1.27666174
 C            2.89587128        2.13832748       -0.68064352
 C            3.70391747        1.03390161       -1.16374433
 C            2.01849561        2.54967009       -1.76131244
 C            0.28349247        2.97522198       -0.14914803
 C            0.68023004        2.81385055       -1.48361499
 C           -1.64093108        2.74673620        1.33836556
 C           -1.03174500        3.31294980        0.15021790
 C           -2.92116100        0.67592612        1.27690253
 C           -2.81606082        2.01245827        0.90876457
 C           -3.23744792       -1.63128836        0.64485372
 C           -2.56320938       -2.57944828       -0.21874784
 C           -3.20370085       -0.28825833        0.29714292
 C           -1.04156628       -2.77163958       -2.03483057
 C           -2.17470912       -2.17191301       -1.48964419
 C            1.01862733       -2.10333325       -2.93528118
 C           -0.41078691       -2.19545265       -3.20695874
 C            2.88871993       -0.64207504       -2.59085815
 C            3.30713961        0.74722212       -2.52763199
 C            2.37011047        1.77221194       -2.94048684
 C            1.73885849       -0.96713430       -3.30512654
 C            1.36716314        1.41773617       -3.82518740
 C            1.14247614        0.00604563       -4.11082216
 C           -0.27332407        2.69263247       -2.50617594
 C            0.06483357        2.04022784       -3.69023698
 C           -2.02802392        3.28127764       -0.89771345
 C           -3.09961267        2.39942639       -0.45891225
 C           -1.62610919        2.85336418       -2.21965433
 C           -3.07904244        0.03481253       -1.05492857
 C           -2.56772131       -0.91178151       -1.95367292
 C           -3.23851125        1.35708420       -1.45363963
 C           -2.56507164        1.82620084       -2.64721170
 C           -1.05236347       -1.16474691       -3.87515037
 C           -0.24806847       -0.13821227       -4.50546480
 C           -0.90479531        1.14055042       -4.29087961
 C           -2.18931682       -0.51720637       -3.23886119
 C           -2.15056149        0.89559924       -3.58646507
