   70
C70 / DATE: 7/ 1/2024 / Origin: Program Fullerene / C70 from database
 C            1.54403472        0.08340502        4.45510464
 C            0.73610720       -1.11078408        4.28879499
 C            1.52193780       -2.06193227        3.53877262
 C            2.67046668       -0.01726698        3.54124546
 C            2.69389253       -1.36431841        3.02535576
 C            2.57816418        1.07036731        2.59366425
 C            0.74157909        1.21441378        4.03574180
 C            1.47706305        1.92142491        3.01141132
 C           -0.54497457       -0.71960271        3.74270959
 C           -0.58024217        0.73267556        3.69388370
 C           -1.05004176       -1.43861811        2.66245754
 C            0.87336143       -2.93319030        2.67397866
 C           -0.45553517       -2.65550275        2.30319371
 C            1.69920483       -3.60265700        1.77771224
 C            3.04476291       -1.57764493        1.69501978
 C            2.80211985       -2.85789177        1.19785292
 C            2.73022326        0.80294602        1.23182426
 C            3.07955746       -0.48862275        0.80612294
 C            2.21073005        1.72958676        0.31467468
 C            0.75433335        2.55205423        2.01479862
 C            1.39213759        2.75437242        0.80312458
 C           -1.23206439        1.33449221        2.62698359
 C           -0.63909739        2.43839179        2.00500119
 C           -1.93236667       -0.80268348        1.77921328
 C           -2.14332959        0.57634043        1.90358524
 C           -2.41079081       -1.48145071        0.65086515
 C           -1.08163754       -3.43336903        1.33260093
 C           -2.02001186       -2.79869380        0.42543167
 C            1.12310130       -4.43694918        0.74825045
 C           -0.30762706       -4.38709752        0.55500424
 C            2.80072554       -3.10722344       -0.23270293
 C            1.76068607       -4.08472147       -0.51126959
 C            3.24476737       -0.72434590       -0.55526840
 C            2.96171869       -2.04067344       -1.10009812
 C            2.23620772        1.45679218       -1.06011041
 C            2.75519781        0.25151445       -1.51143273
 C            1.41227421        2.18442439       -1.92145979
 C            0.79072515        3.63650374       -0.07814966
 C            0.97193610        3.43192529       -1.49571518
 C           -1.34060900        3.09778179        0.99012186
 C           -0.61754531        3.92386195        0.12782056
 C           -2.94782059        1.23713011        0.98592959
 C           -2.57390424        2.58296382        0.58133830
 C           -2.89215356       -0.74425951       -0.43478093
 C           -3.39687379        0.52765000       -0.19518035
 C           -2.50808444       -1.11879637       -1.72854063
 C           -1.63687622       -3.16207932       -0.92506109
 C           -0.54918581       -4.10916799       -0.85010497
 C            0.71253012       -3.74471443       -1.45813031
 C           -1.58032950       -2.14329246       -1.86104974
 C            2.01131599       -1.86434003       -2.18678535
 C            2.02956684       -0.46031889       -2.54771776
 C            0.79671384       -2.54410100       -2.15836828
 C           -0.37087958       -1.85979575       -2.51139406
 C            0.75098702        1.51036613       -2.96044433
 C            0.88002111        0.12436702       -3.05876731
 C           -0.26610503       -0.66145112       -3.22335934
 C           -0.25938347        2.13251146       -3.69033553
 C           -0.13663852        4.08864076       -2.16002911
 C           -1.17212635        4.30565674       -1.15955539
 C           -0.74625784        3.43916016       -3.29626246
 C           -3.04491317        2.77667278       -0.78435536
 C           -3.51244432        1.48720620       -1.27986225
 C           -2.38109597        3.65996286       -1.62872296
 C           -2.16955829        3.31026489       -3.02286742
 C           -2.61595068       -0.22148364       -2.78297406
 C           -1.44921881       -0.04532271       -3.62580691
 C           -1.41610876        1.34198553       -4.05025021
 C           -3.21827662        1.08116805       -2.57375087
 C           -2.58809201        2.00538250       -3.49892634
