   70
C70 / DATE: 7/ 1/2024 / Origin: Program Fullerene / C70 from database
 C            1.61230118       -0.00526653        4.59323235
 C            0.75816937       -1.17189513        4.56189063
 C            1.22572595       -2.04784008        3.49914250
 C            2.57331526       -0.14011701        3.51397194
 C            2.24247827       -1.32648856        2.75389952
 C            2.59163428        1.11776444        2.81042965
 C            0.77738763        1.14381302        4.28578298
 C            1.45358422        1.89392879        3.25799475
 C           -0.61470561       -0.70389328        4.49430325
 C           -0.55414517        0.65927201        3.99512641
 C           -1.53560114       -1.55973853        3.92395207
 C            0.26578483       -2.76212927        2.79870257
 C           -1.02508963       -2.77934501        3.33281670
 C            0.43486512       -2.94796451        1.42247306
 C            2.12323467       -1.21677629        1.36936660
 C            1.25344430       -2.07224311        0.69092868
 C            2.81152349        1.11198358        1.44343746
 C            2.61503478       -0.07717681        0.72180422
 C            2.55234116        2.30631397        0.78588516
 C            0.70019629        2.49250853        2.26023685
 C            1.42085680        3.02578417        1.20051176
 C           -1.12146209        0.96346416        2.75347059
 C           -0.58178995        1.99101768        1.97756698
 C           -2.44224384       -1.02606267        2.92619823
 C           -2.03171872        0.07369449        2.17624358
 C           -2.11492538       -3.30789009        2.54505442
 C           -2.99608035       -2.17948323        2.25263599
 C           -0.45725368       -3.77373138        0.75141903
 C           -1.79562473       -3.94662821        1.29088164
 C           -0.60576610       -3.63479404       -0.67868086
 C            1.13451959       -1.97514566       -0.70583039
 C            0.31495864       -2.87810641       -1.40213706
 C            2.55723105       -0.00742141       -0.67498355
 C            1.71683352       -0.88157067       -1.37538649
 C            2.99128410        2.39184885       -0.52401185
 C            3.00054803        1.16309505       -1.29465623
 C            2.51591991        3.46687070       -1.36929793
 C            0.69870580        3.77125759        0.28227736
 C            1.31981827        4.16752198       -0.96202575
 C           -1.14293490        2.25054003        0.72405647
 C           -0.65556018        3.33503291        0.00486491
 C           -2.27356944        0.12275221        0.79127386
 C           -1.82273951        1.22611405        0.05662043
 C           -3.17112102       -2.12985399        0.81999743
 C           -2.71442937       -3.40271501        0.31413103
 C           -2.01527727       -3.38469994       -0.94066091
 C           -2.80568983       -0.98475823        0.11374975
 C           -2.28489289       -2.35454378       -1.81616171
 C           -2.60763739       -1.09742166       -1.26660221
 C           -0.06646577       -2.56829424       -2.70562314
 C           -1.48876427       -2.37321250       -2.94174590
 C            1.41888780       -0.62952380       -2.72491704
 C            0.62592812       -1.52701263       -3.42917345
 C            2.55882069        1.48508933       -2.63727217
 C            2.28487772        2.91643858       -2.69028894
 C            1.69175540        0.62332331       -3.28987234
 C            0.32943397        4.01455072       -2.01107918
 C           -0.85366246        3.39432149       -1.42714260
 C            0.97376854        3.36130286       -3.13723144
 C           -1.88000886        1.20819167       -1.34891854
 C           -2.34997577        0.06038157       -2.00908032
 C           -1.43456680        2.31897660       -2.08811119
 C           -1.64362835       -1.30848517       -3.89114744
 C           -0.32123956       -1.01689149       -4.40489194
 C           -2.18484704       -0.06820607       -3.38961790
 C            0.79273099        1.18590982       -4.19774150
 C            0.21717593        2.47729323       -3.88599242
 C           -1.13241682        2.17770125       -3.44004196
 C           -0.30678055        0.39494475       -4.70109207
 C           -1.52246128        0.97432299       -4.13491441
