   70
C70 / DATE: 7/ 1/2024 / Origin: Program Fullerene / C70 from database
 C            1.17306492        0.00356389        4.32325991
 C            2.47354292       -0.35924897        3.80869352
 C            2.43784639       -1.77507399        3.48525935
 C            0.34102420       -1.18828929        4.29091539
 C            1.05106776       -2.20072170        3.54343845
 C           -0.96412188       -0.79252560        3.82505754
 C            0.43488175        1.06413643        3.66389074
 C           -0.94635250        0.63946500        3.57199348
 C            0.98536434        1.72949123        2.57937885
 C            2.97410059        0.33842913        2.64342754
 C            2.26648113        1.40578081        2.10884213
 C            3.16359765       -1.96544311        2.24569722
 C            3.51364210       -0.64590367        1.72651729
 C            2.69876012       -2.92666623        1.36417540
 C            0.46345823       -2.74790358        2.40087581
 C            1.29714528       -3.32848037        1.44004950
 C           -1.62462479       -1.59181567        2.90801153
 C           -0.86492703       -2.42511243        2.06406315
 C           -2.81802284       -1.06779854        2.43618149
 C           -1.75062334        1.12538366        2.53751817
 C           -2.87658123        0.37204494        2.22395765
 C            0.12059249        2.43066311        1.74243277
 C           -1.18048213        1.94797409        1.55210957
 C            0.68213178        3.28472721        0.80487357
 C            2.62154377        1.83309301        0.83762119
 C            2.04714981        3.01512369        0.39347015
 C            3.43863810       -0.39387723        0.35255076
 C            3.04470881        0.87482245       -0.09583377
 C            3.04306068       -2.78740688       -0.03432916
 C            3.39248918       -1.46936148       -0.53368874
 C            0.81260347       -3.49650572        0.08223836
 C            1.92225452       -3.27332729       -0.81810509
 C           -1.33567204       -2.73456088        0.77623092
 C           -0.42844509       -2.97691551       -0.24589113
 C           -3.47388393       -1.70948045        1.32508293
 C           -2.66029955       -2.50124792        0.43454380
 C           -3.57566704        0.60693682        0.98101472
 C           -4.11018856       -0.66980216        0.54052797
 C           -1.80224797        2.08989357        0.29579666
 C           -3.02175658        1.45644112        0.03158540
 C           -0.07053519        3.62087179       -0.38424038
 C           -1.19645800        2.86582535       -0.70279824
 C            2.17573388        3.38171330       -0.99797470
 C            0.90083981        3.93875884       -1.41604690
 C            2.76731499        1.06001876       -1.45668050
 C            2.53589928        2.34487679       -1.94024999
 C            2.72455665       -1.30748266       -1.81208569
 C            1.73175745       -2.36029604       -1.92370399
 C            2.36941152       -0.03246183       -2.22800218
 C           -0.64587621       -2.41711569       -1.51128921
 C            0.44261979       -1.99766058       -2.28826963
 C           -2.96893811       -2.09186489       -0.92687971
 C           -3.96180718       -1.02265556       -0.85468543
 C           -1.93954263       -2.01886481       -1.87149404
 C           -3.44975737        1.32312874       -1.28733109
 C           -3.88081861        0.01390434       -1.76847808
 C           -1.57436870        2.71277532       -2.04473930
 C           -2.70289022        1.96301737       -2.35141370
 C            0.65248123        3.48243514       -2.76334027
 C            1.68714623        2.51503326       -3.10605256
 C           -0.62169360        2.86148423       -3.05365157
 C            1.28368170        0.10308914       -3.09595346
 C            0.29600186       -0.88761954       -3.11190527
 C            1.02401355        1.34719681       -3.66044174
 C           -0.34903438        1.73174690       -3.92368460
 C           -2.11940120       -1.22604572       -3.00676328
 C           -3.18250764       -0.23835157       -3.00896156
 C           -2.61944939        1.02011313       -3.45533170
 C           -0.96063386       -0.61806970       -3.63919446
 C           -1.31299916        0.74199792       -4.02179175
