   70
C70 / DATE: 7/ 1/2024 / Origin: Program Fullerene / C70 from database
 C            1.37088076        0.07586629        4.76294547
 C            0.62288054       -1.13858607        4.51622718
 C            1.29238117       -1.88744830        3.46395131
 C            2.58196784        0.00411201        3.97422257
 C            2.53366508       -1.20157725        3.16122825
 C            2.71143416        1.27011788        3.28653894
 C            0.58088664        1.18143201        4.24190772
 C            1.37507955        1.84631730        3.23239767
 C           -0.74765327       -0.74321256        4.28439223
 C           -0.70910372        0.65004805        3.86295728
 C           -1.52598190       -1.60393911        3.53719929
 C            0.51248795       -2.39716586        2.42759579
 C           -0.84576180       -2.56760674        2.67966507
 C            0.94895601       -2.25694602        1.10372580
 C            2.95697665       -1.11008841        1.84119366
 C            2.24409360       -1.78443972        0.84562608
 C            3.45462955        1.27429120        2.12243466
 C            3.73537663       -0.00632905        1.49007147
 C            3.02437586        2.13932300        1.04939685
 C            0.81164882        2.12206918        1.98509045
 C            1.66843339        2.45184561        0.93576404
 C           -1.25379540        0.98555162        2.62289468
 C           -0.50460050        1.73261056        1.69942534
 C           -2.55746838       -1.02491238        2.70982173
 C           -2.34594953        0.24298929        2.17088756
 C           -1.74663197       -2.86020468        1.58222138
 C           -2.96064970       -2.09172692        1.82460472
 C            0.06758205       -2.51497365        0.03700077
 C           -1.24625079       -2.93279270        0.28635737
 C            0.45860909       -2.23806836       -1.27645274
 C            2.70765642       -1.72999690       -0.46648070
 C            1.78433582       -1.96197185       -1.55885969
 C            4.01035360        0.26667509        0.08879251
 C            3.73969346        1.68292742       -0.12463959
 C            3.60714501       -0.65846999       -0.86410097
 C            3.28270549        2.11136893       -1.35671923
 C            1.14947176        2.73197043       -0.32765059
 C            2.05096268        2.87475398       -1.38370434
 C           -1.01840052        1.93936769        0.41519726
 C           -0.20398114        2.48036103       -0.59221007
 C           -2.91965247        0.54459272        0.93789404
 C           -2.30584033        1.48826391        0.11446623
 C           -3.74923477       -1.75956138        0.74127259
 C           -3.84279798       -0.35175632        0.39090277
 C           -2.17042331       -2.95394998       -0.75986708
 C           -3.51743594       -2.47802659       -0.49389931
 C           -0.50229120       -1.96288865       -2.24445961
 C           -1.78586409       -2.45920275       -2.07059632
 C           -0.24713538       -1.00226428       -3.22932972
 C            2.08606131       -1.02061943       -2.62266697
 C            3.20433684       -0.19664115       -2.18309856
 C            3.20499561        1.16543552       -2.45697737
 C            1.03413481       -0.45404237       -3.34388651
 C            1.57589213        2.82708446       -2.74457340
 C            2.22981018        1.69469753       -3.39033278
 C            1.17588455        0.82601759       -3.88029227
 C           -0.71471314        2.67928515       -1.88593298
 C            0.15804045        2.68853156       -2.97243453
 C            0.00288645        1.67035650       -3.99703370
 C           -2.87158974        1.78795112       -1.11844340
 C           -2.04351861        2.37022620       -2.15601882
 C           -4.16490898       -0.28488112       -1.02300795
 C           -3.91064805       -1.60483053       -1.58238293
 C           -2.91882880       -1.74075712       -2.63405188
 C           -3.76566836        0.82648451       -1.74806850
 C           -1.31434436       -0.36442646       -3.86589446
 C           -1.23374006        1.06470464       -4.11588786
 C           -2.33857860        1.67131459       -3.39751910
 C           -2.67797930       -0.64823172       -3.45229173
 C           -3.29528984        0.62359175       -3.10650506
