   70
C70 / DATE: 7/ 1/2024 / Origin: Program Fullerene / C70 from database
 C            1.48823986        0.11646608        5.04812241
 C            0.73254726       -1.11905678        5.00742746
 C            1.51095202       -2.08748003        4.25823663
 C            2.62397966       -0.03015117        4.15022460
 C            2.63998823       -1.38934469        3.66367803
 C            2.54880578        1.03883432        3.17889350
 C            0.63899195        1.16852290        4.51416862
 C            1.39586371        1.85469966        3.50095968
 C           -0.60897496       -0.80335203        4.54723196
 C           -0.62387511        0.58726782        4.11871099
 C           -1.28083771       -1.73105813        3.77157191
 C            0.84901015       -2.83421458        3.20475508
 C           -0.53695783       -2.82223677        3.14307783
 C            2.59286273       -1.61029507        2.22928255
 C            1.59838303       -2.63480337        1.97433915
 C            2.77821281        0.77901027        1.82711635
 C            2.67746437       -0.53463569        1.34477000
 C            2.47524192        1.81386390        0.94350599
 C            0.72319049        2.39448486        2.42141289
 C            1.51786919        2.75035724        1.35190204
 C           -1.15135322        0.91844403        2.86428872
 C           -0.57532448        1.95629727        2.12000154
 C           -2.21311024       -1.24157473        2.77708065
 C           -2.03382629        0.03439229        2.23936282
 C           -1.17125516       -3.07553447        1.86339434
 C           -2.42776927       -2.35120546        1.87816183
 C            0.91811394       -2.60671365        0.75971060
 C           -0.40527329       -3.04956348        0.69714412
 C            2.26106745       -0.73599235        0.02524590
 C            1.41388166       -1.80922875       -0.27279487
 C            2.64573953        1.58916721       -0.41903451
 C            2.41601901        0.29545335       -0.90080854
 C            2.51586461        2.68408196       -1.26581014
 C            0.92170619        3.55072486        0.39930493
 C            1.60758027        3.73310548       -0.85724912
 C           -1.09583361        2.26313258        0.85186550
 C           -0.47486698        3.27380244        0.11612679
 C           -2.46472174        0.28151440        0.93070948
 C           -1.88279887        1.31476964        0.18778471
 C           -3.02154155       -2.08862646        0.66353146
 C           -3.21067459       -0.69906670        0.28231937
 C           -1.07836882       -2.96611575       -0.52057847
 C           -2.45166402       -2.72370811       -0.50124291
 C            0.82244345       -1.89379883       -1.53183130
 C           -0.36504454       -2.62533027       -1.66935315
 C            2.02444980        0.08515828       -2.22802172
 C            1.25739996       -1.03801988       -2.55063226
 C            2.31436422        2.47378273       -2.67989251
 C            2.12755660        1.11968561       -3.15611427
 C            0.59217608        3.85276522       -1.88109039
 C           -0.64349683        3.32661179       -1.32399153
 C            1.13083008        3.23331371       -3.07063450
 C           -1.98926548        1.32996665       -1.21965534
 C           -1.28544941        2.27825042       -1.97341206
 C           -3.31249167       -0.68395500       -1.16464714
 C           -3.05059055       -2.04417885       -1.62612568
 C           -2.78011676        0.38274520       -1.88143520
 C           -1.05691885       -2.60558294       -2.87871521
 C           -2.45789459       -2.20798228       -2.86323766
 C            0.71851773       -1.14958280       -3.83363590
 C           -0.43890613       -1.99720669       -4.03730154
 C            1.13261031        1.21540951       -4.20432119
 C            0.28352952        2.32178142       -3.80416281
 C           -0.99171982        2.02833566       -3.32113797
 C            0.50417727        0.05656462       -4.61882799
 C           -2.65349597        0.23050148       -3.26186809
 C           -2.59075479       -1.11820298       -3.80214247
 C           -1.45742378       -1.19882155       -4.70060769
 C           -1.69150308        1.03452221       -3.99012662
 C           -0.92553084        0.13883318       -4.84497969
