   70
C70 / DATE: 7/ 1/2024 / Origin: Program Fullerene / C70 from database
 C            1.19737817        0.21855211        4.66025814
 C            2.44576427        0.05552348        3.94827041
 C            2.48046686       -1.31277953        3.46739996
 C            0.38344713       -0.96002333        4.38473054
 C            1.12367342       -1.80602450        3.47058344
 C           -0.93005689       -0.50261029        3.99065848
 C            0.39186240        1.38461845        4.36658302
 C           -0.97529310        0.93055131        4.19439250
 C            0.71950320        2.19166696        3.20337019
 C            2.72598570        0.91266177        2.80549622
 C            1.76119536        1.80772695        2.35628061
 C            3.17320243       -1.29695730        2.20556840
 C            3.41845686        0.08978799        1.83821509
 C            2.73702149       -2.13787393        1.19735772
 C            0.54722689       -2.16484713        2.25169277
 C            1.37403435       -2.49418071        1.16787383
 C           -1.50457045       -0.99947735        2.83055038
 C           -0.81239789       -1.91975943        2.03152619
 C           -2.53458080       -0.26436424        2.25783436
 C           -1.57713178        1.74254503        3.14983593
 C           -0.54170087        2.61261765        2.62050776
 C           -2.43267672        1.13148524        2.23887588
 C           -0.57884532        2.91574492        1.26785744
 C            1.66326629        2.08817595        0.99148837
 C            0.61526200        2.89549553        0.54815699
 C            3.35645332        0.41253017        0.48408896
 C            2.45749725        1.40003641        0.05801606
 C            3.40327851       -1.97213271       -0.00331038
 C            3.69841374       -0.60569575       -0.40360558
 C            2.94457023       -2.69594046       -1.15954026
 C            0.78402257       -2.91135485       -0.03535180
 C            1.58660575       -3.18278858       -1.14650006
 C           -1.40625957       -2.35630349        0.84389072
 C           -0.60299463       -2.82759463       -0.19919881
 C           -3.32395983       -0.90071040        1.31481208
 C           -2.74226419       -2.02017232        0.59658327
 C           -4.06533486       -0.09291469        0.36686401
 C           -2.70859581        1.81288225        1.05247591
 C           -1.78395256        2.75179156        0.58383551
 C           -3.66315323        1.28737937        0.18607281
 C           -1.87845714        3.22741231       -0.72051911
 C            0.61267183        3.34240118       -0.76510400
 C           -0.66157393        3.65361206       -1.38849229
 C            2.22553826        1.58106286       -1.31381114
 C            1.42925654        2.64343820       -1.73876619
 C            3.36378777       -0.48098821       -1.80640819
 C            3.08746015       -1.81851242       -2.30742239
 C            2.55983588        0.57111908       -2.22149205
 C            1.05815841       -2.97490021       -2.48333747
 C            1.92827257       -2.02011136       -3.15719863
 C           -1.15644090       -3.01032794       -1.46819958
 C           -0.31419113       -2.88615198       -2.64311699
 C           -3.24877634       -1.98058425       -0.76649877
 C           -4.00233553       -0.75031191       -0.92629344
 C           -2.41844826       -2.38059810       -1.79700737
 C           -3.54786822        1.52334561       -1.24300626
 C           -2.67848012        2.50067296       -1.69165164
 C           -3.54610492        0.22747537       -1.89958983
 C           -0.66182672        3.07666640       -2.72091534
 C            0.65238648        2.51491363       -2.96384149
 C           -1.82157535        2.20802262       -2.82599557
 C            1.81594683        0.41513455       -3.39033399
 C            1.37421765       -0.91325989       -3.78674019
 C            0.73913033        1.33721863       -3.68722513
 C           -0.88285500       -1.83474964       -3.47651280
 C           -2.15876458       -1.45859015       -2.89410029
 C           -2.50213538       -0.11169489       -2.75935259
 C           -1.64461242        0.88703940       -3.23776392
 C           -0.06221671       -0.84944800       -4.00383767
 C           -0.46481978        0.54342664       -3.89996274
