   70
C70 / DATE: 7/ 1/2024 / Origin: Program Fullerene / C70 from database
 C            1.25602226        0.03473316        4.32474101
 C            2.54813275       -0.19674408        3.72101223
 C            2.59644323       -1.58740279        3.30882804
 C            0.44357496       -1.15501012        4.12264323
 C            1.25610618       -2.13688860        3.43185742
 C           -0.80738559       -0.74209403        3.51511045
 C            0.48532547        1.16801303        3.86463021
 C           -0.85294418        0.70572221        3.53939483
 C            1.06743589        2.10448808        3.01915741
 C            2.93402478        0.61671003        2.58200053
 C            2.16326354        1.72246449        2.22425107
 C            3.24831515       -1.64517572        2.01266075
 C            3.38745779       -0.27918525        1.53129271
 C            2.83814359       -2.62387353        1.12262726
 C            0.71785627       -2.81445403        2.34186615
 C            1.60139887       -3.33717762        1.39917611
 C           -1.24526307       -1.39939252        2.37820376
 C           -0.60940350       -2.57375832        1.97082113
 C           -2.10019435       -0.73632061        1.50000927
 C           -1.55241102        1.38798820        2.54492645
 C           -2.19305342        0.66307395        1.53148740
 C            0.20993028        3.08702740        2.54197703
 C           -1.17390901        2.70604554        2.29396512
 C            0.64427412        3.92721633        1.44742813
 C            2.26733515        2.19866516        0.91283026
 C            1.68667835        3.42058176        0.58574948
 C            3.06573003        0.02936279        0.21084613
 C            2.70785352        1.33988291       -0.10034942
 C            2.83306764       -2.32290551       -0.29505046
 C            2.83329373       -0.99497417       -0.71782091
 C            1.09378906       -3.83429610        0.13183705
 C            1.92550562       -3.26765361       -0.92085001
 C           -1.16030252       -3.29933537        0.92081490
 C           -0.27881333       -3.92758760       -0.05022656
 C           -2.74426771       -1.46454114        0.49956338
 C           -2.29614974       -2.75021800        0.19961193
 C           -3.56128375       -0.80585382       -0.41246782
 C           -2.76280661        1.34569152        0.45142476
 C           -3.53254486        0.64371979       -0.47205819
 C           -1.60240010        3.35666074        1.07085916
 C           -0.51500212        4.21076514        0.62099031
 C           -2.31642635        2.62862073        0.12828062
 C            1.28677306        3.68780667       -0.78577347
 C           -0.09940968        4.13474907       -0.76818808
 C            2.54130112        1.68932002       -1.43445334
 C            1.72580133        2.83749817       -1.78973652
 C            2.36792787       -0.68729335       -2.00227145
 C            2.27916481        0.64207026       -2.40070954
 C            1.35946272       -2.93748343       -2.14295880
 C            1.64677479       -1.63743403       -2.72523884
 C           -0.84651381       -3.71446232       -1.37155549
 C           -2.17961207       -3.16585167       -1.19068532
 C           -0.04031941       -3.23994704       -2.40044444
 C           -3.63654857       -1.30280930       -1.77583396
 C           -2.73351184       -2.36465687       -2.17983426
 C           -3.49205781        1.03296239       -1.87496613
 C           -3.42514897       -0.17867807       -2.66774418
 C           -2.22273128        3.00388889       -1.21068030
 C           -0.99857799        3.62144352       -1.69405328
 C           -2.68152125        2.09452948       -2.24112645
 C            0.81343183        2.42530965       -2.84613683
 C            1.14392588        1.05974185       -3.21077457
 C           -0.51625061        2.81240422       -2.80273594
 C           -1.55006471        1.84239470       -3.12431107
 C            0.47480750       -1.21414920       -3.47669621
 C           -0.55246712       -2.22827319       -3.31239712
 C           -1.88131139       -1.83974704       -3.23938740
 C           -2.21661670       -0.43991571       -3.42918725
 C            0.13651896        0.13761714       -3.49097671
 C           -1.20962362        0.52637475       -3.44519536
