   70
C70 / DATE: 7/ 1/2024 / Origin: Program Fullerene / C70 from database
 C            1.24472850        0.14834316        4.77938164
 C            2.48810959        0.03953881        4.04765852
 C            2.53786172       -1.30313110        3.50160290
 C            0.43623093       -1.01488900        4.43345161
 C            1.18807629       -1.81349464        3.48412123
 C           -0.87396858       -0.53883246        4.04989030
 C            0.43090586        1.32742171        4.56891780
 C           -0.93135940        0.88128988        4.33767575
 C            0.76580210        2.22397885        3.47690631
 C            2.74079869        0.95502742        2.94414288
 C            1.76199212        1.86471645        2.56502227
 C            3.22295114       -1.21715856        2.23983362
 C            3.41418805        0.18936804        1.91991194
 C            2.80521736       -2.03057309        1.20271059
 C            0.61591911       -2.13016414        2.25048248
 C            1.44422902       -2.39260347        1.14889386
 C           -1.42910396       -0.97300902        2.85703383
 C           -0.74273054       -1.88233502        2.04148663
 C           -2.42655229       -0.19195340        2.28866338
 C           -1.51316164        1.76072345        3.33194004
 C           -0.49493882        2.73873931        2.98145800
 C           -2.28189751        1.19605604        2.31273169
 C           -0.52466237        3.28867915        1.71458913
 C            1.61933224        2.20265427        1.21472103
 C            0.63954463        3.12295409        0.85775744
 C            3.28840072        0.55773167        0.58183027
 C            2.27344851        1.45751254        0.21893654
 C            3.46672913       -1.79751539        0.01260226
 C            3.68980952       -0.40332981       -0.33948073
 C            3.02982166       -2.49428586       -1.16645344
 C            0.85352341       -2.71188752       -0.08692209
 C            1.66279338       -2.95640770       -1.19527828
 C           -1.33440821       -2.26634606        0.83761001
 C           -0.51988373       -2.51731050       -0.27556918
 C           -3.20389086       -0.77134029        1.30428332
 C           -2.68277093       -1.96259179        0.66291195
 C           -3.74186868        0.07326419        0.25942659
 C           -2.47910730        1.92127149        1.13222687
 C           -1.68640644        3.04228038        0.88448453
 C           -3.19593615        1.34126607        0.08020521
 C            0.17119615        3.17329221       -0.51232141
 C           -1.27480411        3.33245852       -0.47157611
 C            1.81555555        1.50752803       -1.11518028
 C            0.72936323        2.32505922       -1.45974878
 C            3.34707548       -0.24880744       -1.73231953
 C            3.21021129       -1.58646319       -2.28102434
 C            2.42216202        0.71819785       -2.10362078
 C            1.15436671       -2.67422214       -2.52428238
 C            2.12997722       -1.82814333       -3.20879794
 C           -1.05195348       -2.49503274       -1.57978266
 C           -0.20090458       -2.40996759       -2.68413755
 C           -3.27466165       -2.03631569       -0.65195749
 C           -3.98121870       -0.78422803       -0.88798108
 C           -2.41128621       -2.27240504       -1.78339244
 C           -3.61859986       -0.31476015       -2.21047275
 C           -2.82350303       -1.36035232       -2.83506645
 C           -3.08978074        1.87329407       -1.20797148
 C           -2.02885597        2.82105902       -1.51123741
 C           -3.25577548        1.01566857       -2.37640909
 C            0.03067009        2.10144957       -2.64759702
 C           -1.34374727        2.33602675       -2.69346122
 C           -2.21624581        1.36376223       -3.33265754
 C            1.81360940        0.58593637       -3.35326537
 C            1.66263338       -0.74533840       -3.93439210
 C            0.61041718        1.33701640       -3.64851402
 C           -0.61815205       -1.71086041       -3.81910763
 C           -1.90041158       -1.02759922       -3.81495080
 C           -1.64817828        0.37470355       -4.12479516
 C            0.32636329       -0.83390264       -4.48097103
 C           -0.24328846        0.49928784       -4.47480688
