   70
C70 / DATE: 7/ 1/2024 / Origin: Program Fullerene / C70 from database
 C            1.61679946       -0.05727718        5.04847675
 C            0.79260305       -1.23371053        5.24491705
 C            1.29949959       -2.27339735        4.37041585
 C            2.58503420       -0.35849655        4.00570433
 C            2.33734091       -1.69881293        3.52784555
 C            2.53240762        0.71599694        3.04674024
 C            0.76108584        1.00261064        4.54528387
 C            1.43252697        1.59121378        3.41068124
 C           -0.55188952       -0.91674691        4.79378471
 C           -0.56064573        0.45877825        4.32614999
 C            0.15712703       -2.87901549        3.71718681
 C           -0.96246539       -1.95826673        3.86645836
 C            0.36670653       -3.44182912        2.47188308
 C            2.27598042       -1.93227062        2.15226571
 C            1.55351206       -3.04183989        1.72589743
 C            2.68182028        0.42689850        1.69698208
 C            2.53039482       -0.88965461        1.24239562
 C            2.35844374        1.44647376        0.81615672
 C            0.66564203        2.08755040        2.36553130
 C            1.32873245        2.31847510        1.17555999
 C           -1.19073933        0.73534883        3.11692841
 C           -0.68687511        1.74593759        2.28353719
 C           -1.68645948       -1.58667593        2.73296077
 C           -2.01604215       -0.24052723        2.56499621
 C           -0.72396477       -3.42854110        1.52144246
 C           -1.69606456       -2.43480941        1.61985719
 C            1.24546803       -3.20050739        0.31944102
 C           -0.12002812       -3.69131711        0.23381180
 C            2.34155407       -1.09804436       -0.13648211
 C            1.66780364       -2.24110178       -0.59159490
 C            2.63032834        1.26393816       -0.53201104
 C            2.57654307       -0.04067241       -1.02960235
 C            2.39205737        2.34890304       -1.37373818
 C            0.64149077        2.96726922        0.16847475
 C            1.38031781        3.29827506       -0.95461056
 C           -1.38599238        2.05577621        1.10443116
 C           -0.72713382        2.70221999        0.04519863
 C           -2.83143790        0.12072549        1.50805766
 C           -2.58030721        1.39057684        0.85106308
 C           -2.39271626       -2.05184081        0.46879734
 C           -3.10893020       -0.86025248        0.47611533
 C           -0.85142835       -3.39712129       -0.90059814
 C           -2.09512097       -2.65864854       -0.75129820
 C            1.09360769       -2.24918001       -1.86445613
 C           -0.15802291       -2.83139363       -2.04229889
 C            2.39405372       -0.25820750       -2.39514960
 C            1.54736189       -1.35408052       -2.81986266
 C            2.24164227        2.15244163       -2.80144700
 C            2.15361049        0.85991392       -3.29440006
 C            0.69746286        3.78479162       -2.12713103
 C            1.33439488        3.17973980       -3.28651463
 C           -1.35266530        2.81560616       -1.21105287
 C           -0.72363572        3.54252612       -2.22697648
 C           -3.05837098        1.27234816       -0.51003050
 C           -3.33159473       -0.13592651       -0.76555505
 C           -2.47109800        2.02598352       -1.51406884
 C           -2.32222462       -1.93908924       -1.99735089
 C           -1.15208837       -2.14066659       -2.84203322
 C           -2.94469575       -0.69313328       -1.98380010
 C            0.61428728       -0.84149937       -3.81507254
 C            1.07155341        0.48613503       -4.19932894
 C           -0.75025433       -1.11708796       -3.69141029
 C            0.28338183        2.81876855       -4.21664989
 C           -0.98240636        3.21668492       -3.61776340
 C            0.15330685        1.43517391       -4.63766098
 C           -2.68021886        1.58929965       -2.81915523
 C           -2.74370131        0.16075262       -3.06606710
 C           -1.68810821       -0.14343507       -4.01952305
 C           -1.94950402        2.18681380       -3.91674422
 C           -1.25905258        1.11113024       -4.61399064
