   70
C70 / DATE: 7/ 1/2024 / Origin: Program Fullerene / C70 from database
 C            1.23188103        0.20815037        4.87476639
 C            2.52006742        0.04074522        4.23786809
 C            2.58827173       -1.32553179        3.75346864
 C            0.43479994       -0.97580081        4.57883106
 C            1.23944366       -1.86424859        3.76958372
 C           -0.83738594       -0.53282404        4.05792182
 C            0.43971134        1.37018424        4.53177598
 C           -0.89936530        0.90640943        4.21653312
 C            0.86717868        2.22676365        3.43796072
 C            2.88478643        0.91022473        3.13186012
 C            2.06463198        1.97915449        2.76122456
 C            3.30467917       -1.31406356        2.49170599
 C            3.47437224        0.07556009        2.09333987
 C            2.92871389       -2.23176386        1.52891203
 C            0.71845377       -2.38244958        2.58497799
 C            1.62162129       -2.86665906        1.64426277
 C           -1.31453447       -1.06796725        2.86953501
 C           -0.57504043       -2.03381523        2.17055277
 C           -2.27083873       -0.33510211        2.17743465
 C           -1.39013659        1.69106023        3.09546700
 C           -0.32276093        2.57992457        2.67478776
 C           -2.12772616        1.05022079        2.10993857
 C           -0.19286844        2.87924289        1.32105413
 C            2.22686339        2.51980729        1.49048259
 C            1.08058857        3.11320097        0.82071583
 C            3.31200918        0.44805098        0.75727437
 C            2.97034164        1.76635175        0.49228853
 C            3.08883118       -1.87439135        0.13729241
 C            3.10761799       -0.52792695       -0.22694652
 C            1.16840534       -3.16669972        0.29850245
 C            2.24713519       -2.79176854       -0.60059011
 C           -1.04773593       -2.46729278        0.92228839
 C           -0.14548506       -2.88239968       -0.06153550
 C           -2.96809249       -0.97729032        1.16979820
 C           -2.34840458       -2.13615551        0.55330391
 C           -3.55656118       -0.18090566        0.10891745
 C           -2.23727608        1.66665441        0.86812649
 C           -1.20829459        2.51077305        0.43305844
 C           -3.13239765        1.13589463       -0.05752484
 C           -1.05480565        2.76605269       -0.93376759
 C            1.31127923        3.01100148       -0.60640385
 C            2.44774231        2.12429953       -0.80861440
 C            0.22943558        2.90424932       -1.47096272
 C            2.67353824       -0.16746826       -1.51266640
 C            2.37483849        1.16801760       -1.81328838
 C            1.93365490       -2.47864043       -1.90660515
 C            2.32919776       -1.17760264       -2.41584016
 C           -0.45771532       -2.73017269       -1.41931363
 C            0.57484707       -2.69664686       -2.35668180
 C           -2.72164911       -2.13638569       -0.85049489
 C           -3.67573132       -1.05286497       -1.04580633
 C           -1.75173859       -2.38231140       -1.81587773
 C           -3.81832197       -0.48789169       -2.30469618
 C           -3.24166624        1.73458803       -1.30660656
 C           -2.13754780        2.54677536       -1.78328551
 C           -3.74732896        0.95784090       -2.42738565
 C           -1.90348526        2.20277114       -3.17687487
 C           -2.93970626        1.27435373       -3.59297118
 C            0.49224151        2.42009355       -2.74888044
 C            1.58397169        1.47538453       -2.92028987
 C           -0.59945926        2.01567824       -3.61325237
 C            1.45488248       -0.88715039       -3.54074967
 C            0.41512871       -1.90861288       -3.56212682
 C            1.13260046        0.43063334       -3.82068003
 C           -0.21143579        0.76967162       -4.26560831
 C           -1.98589842       -1.97738011       -3.13142162
 C           -3.08136366       -1.06443501       -3.41402656
 C           -2.55552948        0.02522693       -4.22265788
 C           -0.86813838       -1.58082407       -3.97003105
 C           -1.14733742       -0.24156830       -4.46134726
