   70
C70 / DATE: 7/ 1/2024 / Origin: Program Fullerene / C70 from database
 C            1.33486635       -0.10934031        4.17661673
 C            2.64452373       -0.43744696        3.66415768
 C            2.62028865       -1.82411428        3.22573846
 C            0.51437938       -1.30844899        4.09802214
 C            1.25454442       -2.30411319        3.35322396
 C           -0.79098558       -0.91423955        3.60962650
 C            0.59308247        0.96753940        3.54742327
 C           -0.78742326        0.52935347        3.46205943
 C            1.14486069        1.66550979        2.47028452
 C            3.17310747        0.35467574        2.57558161
 C            2.49963824        1.49591104        2.14259787
 C            3.27313504       -1.89715193        1.92749165
 C            3.69257029       -0.55439507        1.56883614
 C            2.72626667       -2.71309759        0.95213058
 C            0.64855203       -2.90800093        2.25721376
 C            1.45137145       -3.36191757        1.21069089
 C           -1.40861347       -1.67057953        2.61972475
 C           -0.72712800       -2.75882870        2.05218840
 C           -2.47814586       -1.08909162        1.93530354
 C           -1.59595597        1.08459742        2.48349688
 C           -2.61466307        0.30260149        1.93898727
 C            0.27300955        2.29402562        1.57031877
 C           -1.10595250        2.16318282        1.74969469
 C            0.76596602        2.90728390        0.41554488
 C            2.99321073        2.09198135        0.98813024
 C            2.13558238        2.96055164        0.21017985
 C            3.66101040       -0.13101653        0.24238583
 C            3.71097582        1.24528427        0.04706767
 C            2.70748535       -2.25464920       -0.42665023
 C            3.04034137       -0.93538441       -0.72836661
 C            0.85356633       -3.65777047       -0.07825425
 C            1.54707931       -2.84794645       -1.06812364
 C           -1.31945331       -3.47096195        1.01119531
 C           -0.52245277       -3.78796040       -0.16099890
 C           -3.21051164       -1.85155191        1.03136182
 C           -2.63817385       -3.08750951        0.54341150
 C           -3.83934427       -1.20031428       -0.10323690
 C           -3.53885953        0.90748459        1.09187882
 C           -4.05430106        0.16579068       -0.04713502
 C           -1.97209923        2.83919719        0.89813634
 C           -3.28289566        2.26718295        0.64810709
 C           -0.10357100        3.22292073       -0.63452019
 C           -1.46202915        3.35425911       -0.36031753
 C            0.33183800        3.12989707       -1.96490798
 C            2.63556369        2.94170235       -1.14796586
 C            3.50494283        1.78215763       -1.27773744
 C            1.67665049        2.88493060       -2.23123483
 C            2.51320468       -0.35873668       -1.89362352
 C            2.92234199        0.91603925       -2.27597110
 C            2.03046436        1.74314189       -3.06357657
 C            0.81690928       -2.07768012       -1.96594993
 C            1.41782595       -0.95488663       -2.53307806
 C           -1.20708010       -3.21558339       -1.30414844
 C           -2.58294198       -2.99699532       -0.90904290
 C           -3.22759753       -1.75522436       -1.29753208
 C           -0.56891303       -2.24029896       -2.06183181
 C           -2.57868762       -0.89594857       -2.18269294
 C           -1.33267348       -1.26841980       -2.70899817
 C           -3.78692884        0.96351350       -1.23098373
 C           -3.52752069        2.31951133       -0.78234347
 C           -2.43850154        3.05549620       -1.39692078
 C           -3.00549824        0.43599237       -2.25782114
 C           -0.58597252        2.83241016       -2.96963822
 C           -1.98396687        2.63984569       -2.63799805
 C           -2.36747995        1.31986374       -3.12396857
 C            1.03233481        1.12769872       -3.80088343
 C            0.73443023       -0.27182809       -3.53832084
 C           -0.70352206       -0.45249621       -3.64079028
 C           -0.23327324        1.82288106       -3.95167368
 C           -1.29280359        0.82951474       -3.96157176
