   70
C70 / DATE: 7/ 1/2024 / Origin: Program Fullerene / C70 from database
 C            1.11568015       -0.08909400        4.58905578
 C            2.36860531       -0.41388876        3.95811340
 C            2.24297805       -1.75992613        3.41389187
 C            0.27895534       -1.27612486        4.50054051
 C            0.83591445       -2.08949344        3.44213611
 C           -1.08014330       -0.81727983        4.36374141
 C            0.33640722        1.00144870        4.04285301
 C           -1.03335558        0.63749190        4.31099299
 C            0.66143625        1.52474674        2.78518564
 C            2.82510076        0.41998922        2.86802944
 C            1.94871033        1.32818154        2.26168519
 C            2.92040570       -1.75479353        2.13494921
 C            3.58643644       -0.47197693        2.02095309
 C            2.26151021       -2.24158455        1.01348228
 C            0.15430549       -2.20667437        2.22907563
 C            0.87557729       -2.46663851        1.06308166
 C           -1.84262670       -1.24429685        3.20743075
 C           -1.20086798       -1.86007000        2.13397900
 C           -2.03331324        1.04951233        3.36218079
 C           -2.73487685       -0.14549906        2.92504625
 C           -0.35441547        2.05541072        1.96977448
 C           -1.69710301        1.97861106        2.38699923
 C           -0.04640835        2.46119982        0.66208176
 C            2.24773004        1.76334830        0.96815763
 C            1.27604945        2.41985065        0.20998715
 C            3.91227921       -0.02713574        0.75441339
 C            3.38813602        1.25812445        0.33765996
 C            2.86748438       -2.02674558       -0.22279700
 C            3.71252939       -0.92751889       -0.37128038
 C            2.28239604       -2.57815395       -1.35236018
 C            0.18548143       -2.73534167       -0.11648338
 C            0.93000880       -3.08591094       -1.23837300
 C           -1.80417075       -1.77932781        0.87363642
 C           -1.14099269       -2.29651319       -0.24996005
 C           -3.34197061       -0.08458933        1.68255501
 C           -2.99026334       -1.04255394        0.72334003
 C           -2.70894238        2.24932935        1.47515468
 C           -3.67808563        1.19254457        1.24654509
 C           -1.06663045        2.75981432       -0.24675673
 C           -2.38138897        2.80041225        0.18186267
 C           -0.81815772        2.65989898       -1.61129344
 C            1.55858237        2.77989594       -1.11272180
 C            0.46722087        2.89688517       -2.06283380
 C            3.48490180        1.28711590       -1.10780741
 C            3.59518694       -0.09631995       -1.55943914
 C            2.67933985        2.16522870       -1.80638688
 C            2.37449587       -1.86684744       -2.61837248
 C            2.82318026       -0.54789053       -2.62886236
 C            0.32798263       -3.01216771       -2.54793798
 C            1.21326980       -2.23783604       -3.40580156
 C           -1.76278347       -2.27147658       -1.51067824
 C           -0.99679117       -2.45567831       -2.65708283
 C           -3.61812330       -1.00656232       -0.51813060
 C           -2.93107497       -1.53796848       -1.67520131
 C           -4.22746289        1.36952740       -0.07793086
 C           -3.42587250        2.38576848       -0.74253762
 C           -4.28789636        0.21288613       -0.94380156
 C           -1.70166828        1.93724883       -2.41633245
 C           -2.95407496       -0.51883482       -2.71665252
 C           -3.03694116        1.86192962       -2.04039232
 C           -3.72382738        0.60188012       -2.22362666
 C            0.42839405       -1.19484913       -4.03885028
 C           -0.95326570       -1.37636099       -3.62980143
 C           -1.19462725        1.00179650       -3.32615197
 C           -1.77237994       -0.27351490       -3.40868824
 C            0.88452752        2.28878076       -3.31167036
 C            2.23364538        1.78442592       -3.13245714
 C            2.23517070        0.37772144       -3.49310931
 C            0.07184352        1.21902281       -3.86344880
 C            0.94864306        0.08741047       -4.11255947
