   70
C70 / DATE: 7/ 1/2024 / Origin: Program Fullerene / C70 from database
 C            1.13151588       -0.09156322        4.64946884
 C            2.38810958       -0.39341184        4.00818803
 C            2.27075257       -1.72479969        3.43010229
 C            0.28488136       -1.26640572        4.50674845
 C            0.86714253       -2.07242763        3.45521912
 C           -1.06837664       -0.79535300        4.33975370
 C            0.36287373        1.03498926        4.16394188
 C           -1.02123573        0.66015061        4.33506012
 C            0.73299762        1.67004495        2.97744753
 C            2.85207699        0.47691800        2.94734235
 C            2.00857036        1.45988301        2.42418637
 C            2.94338779       -1.68847264        2.14848993
 C            3.56540375       -0.38305674        2.02698148
 C            2.30410486       -2.20851993        1.03075390
 C            0.19746396       -2.21776395        2.23921449
 C            0.93300271       -2.50392674        1.08924402
 C           -1.80035179       -1.19275024        3.15368373
 C           -1.15311243       -1.86481030        2.11666836
 C           -1.97255971        1.11119261        3.34417014
 C           -2.64204052       -0.06703031        2.81638026
 C           -0.23706699        2.37280970        2.25034511
 C           -1.60129571        2.10326126        2.44321760
 C            0.16749184        3.16516662        1.18082603
 C            2.32345909        2.00579720        1.17497395
 C            1.47740846        2.94492550        0.60014165
 C            3.82383670        0.09499524        0.75293042
 C            3.28256255        1.38957489        0.37181771
 C            2.88861679       -1.96596945       -0.20996237
 C            3.62716177       -0.79683454       -0.38030665
 C            2.33530295       -2.57007167       -1.32854862
 C            0.25731569       -2.82117886       -0.08594439
 C            1.02290150       -3.16682386       -1.19365614
 C           -1.73880444       -1.82721767        0.84645007
 C           -1.06420932       -2.38362943       -0.24845635
 C           -3.15459211        0.00635511        1.53054578
 C           -2.87568928       -1.03348846        0.64312602
 C           -2.50183787        2.35510197        1.41170522
 C           -3.38683092        1.27559718        1.00955330
 C           -0.75684951        3.45040091        0.09638226
 C           -2.07290127        3.04666430        0.20923115
 C            1.34259981        2.99640151       -0.84991533
 C           -0.05719727        3.24215038       -1.15828126
 C            3.10976683        1.38371497       -1.07374737
 C            3.37784641        0.03278866       -1.54738955
 C            2.07697091        2.11947832       -1.64619940
 C            2.34717017       -1.85389769       -2.59383437
 C            2.62938592       -0.48897434       -2.59714352
 C            0.42079649       -3.18782972       -2.50627632
 C            1.24803891       -2.37388891       -3.38673940
 C           -1.68581311       -2.42713186       -1.50684326
 C           -0.94322095       -2.73807788       -2.64414030
 C           -3.47428055       -1.00300655       -0.61009173
 C           -2.90214436       -1.77857592       -1.69194137
 C           -3.65667415        1.42221389       -0.40743790
 C           -2.72466302        2.41460114       -0.92632568
 C           -3.90027161        0.27991797       -1.15368708
 C           -0.66221754        2.53126919       -2.19243419
 C           -2.00243545        2.13823142       -2.08916998
 C            1.55089330        1.70790881       -2.86839916
 C            1.86833084        0.38142955       -3.37720162
 C            0.15521542        1.97993968       -3.17565557
 C            0.37629086       -1.44890870       -4.08381166
 C           -0.99113071       -1.84250678       -3.78977858
 C            0.71007663       -0.10141345       -4.11887933
 C           -0.33601798        0.90542701       -4.02096397
 C           -3.11483439       -1.03428613       -2.92279443
 C           -3.55430688        0.29930455       -2.56037215
 C           -2.53870465        1.23489450       -3.00833045
 C           -2.00583788       -0.89768306       -3.84959699
 C           -1.66421879        0.51818702       -3.92003480
