   70
C70 / DATE: 7/ 1/2024 / Origin: Program Fullerene / C70 from database
 C            1.16183181        0.03835071        4.99265569
 C            0.40337808       -1.16286561        4.68537127
 C            1.32101456       -2.12863591        4.13391252
 C            2.46129758       -0.09152835        4.35691374
 C            2.60524343       -1.46362772        3.93820267
 C            2.56686788        0.94585832        3.35318286
 C            0.47701021        1.16158277        4.37479508
 C            1.38802170        1.79525792        3.45297566
 C           -0.73962094       -0.76916859        3.88921512
 C           -0.77213814        0.68020705        3.84191824
 C           -1.06434967       -1.46304651        2.72188289
 C            0.98193283       -2.77097639        2.87767156
 C           -0.16935626       -2.39653521        2.17574226
 C            3.01386411       -1.73236069        2.57295911
 C            2.22886477       -2.87558271        2.15087810
 C            3.06522423        0.65344643        2.08312325
 C            3.20750708       -0.68234181        1.66602132
 C            2.91579353        1.64867466        1.12647219
 C            0.87780310        2.34110578        2.27814250
 C            1.78519197        2.55448299        1.24952029
 C           -1.26113438        1.25400637        2.67972999
 C           -0.47999699        2.16446776        1.95991906
 C           -1.99366041       -0.86757389        1.87451170
 C           -2.18763346        0.51357021        1.96667868
 C           -2.30675256       -1.50331842        0.67999817
 C           -0.24688670       -2.70990200        0.80902306
 C           -1.29155510       -2.19928708        0.03045128
 C            2.16746168       -3.14640152        0.80130102
 C            0.85898489       -3.27600638        0.18299114
 C            3.22808014       -0.99638087        0.29763959
 C            2.93981460       -2.30694137       -0.08897214
 C            3.08112276        1.33700005       -0.27614106
 C            3.25569205        0.01816923       -0.66879115
 C            1.30291330        2.84942410       -0.08111005
 C            2.17319016        2.18947749       -1.03267762
 C           -0.95566782        2.56197674        0.70255614
 C           -0.05469943        2.85159144       -0.32812395
 C           -2.88819202        1.15235033        0.95578659
 C           -2.28140213        2.26648137        0.36069708
 C           -3.36850438       -0.99807205       -0.05574787
 C           -3.77054192        0.36477118        0.22441795
 C           -3.35297613       -1.13699405       -1.49640568
 C           -1.14585494       -2.07919218       -1.36483701
 C           -2.14627790       -1.44982381       -2.12151538
 C            1.05500646       -3.05893581       -1.23549502
 C            2.41635319       -2.56219796       -1.41151196
 C            0.02792069       -2.50697678       -1.99330302
 C            3.05106348       -0.28882807       -2.01511298
 C            2.66379277       -1.63592191       -2.40557587
 C            1.63946379        1.71240900       -2.22827727
 C            2.29578682        0.64523007       -2.83987029
 C           -0.47725353        2.74718783       -1.64765365
 C            0.30148757        2.00947957       -2.56044384
 C           -2.76924728        2.76558326       -0.84779623
 C           -1.81337573        3.01561772       -1.91142084
 C           -4.40206880        0.89519048       -0.96216763
 C           -4.20089816       -0.07894919       -2.02536310
 C           -3.95809150        2.18223016       -1.44413158
 C           -2.38589998        2.54267512       -3.14687702
 C           -3.76025136        0.63926368       -3.19763502
 C           -3.72759422        2.05628652       -2.87120221
 C           -1.82980758       -0.87623489       -3.36508079
 C           -0.30750619        1.36999754       -3.65990923
 C           -2.47598866        0.29313192       -3.76234061
 C           -1.67728012        1.50523743       -3.85234683
 C            0.34622170       -1.99463681       -3.24413714
 C            1.69963280       -1.52318290       -3.48106604
 C            1.61434349       -0.12285347       -3.85402581
 C           -0.54365386       -1.03731548       -3.86119297
 C            0.22693905        0.17082321       -4.10899886
