   70
C70 / DATE: 7/ 1/2024 / Origin: Program Fullerene / C70 from database
 C            1.61852765       -0.30160908        5.05820639
 C            0.76771164       -1.47251707        5.01460697
 C            1.24940759       -2.32153017        3.94046489
 C            2.61604360       -0.44265800        4.01013082
 C            2.30074467       -1.61864272        3.23300224
 C            2.67053905        0.81346369        3.31193524
 C            0.80100130        0.85119225        4.71863868
 C            1.53243243        1.61529160        3.74007357
 C           -0.56846187       -1.03590699        4.64459233
 C           -0.51446104        0.38219824        4.35068822
 C            0.09500949       -2.73021289        3.17919735
 C           -1.03728053       -1.92297668        3.59698250
 C            0.23873244       -2.91764483        1.81906864
 C            2.20056301       -1.49988716        1.84398893
 C            1.34178438       -2.36098023        1.15661130
 C            2.95117155        0.81292963        1.95417588
 C            2.66713264       -0.34227876        1.20061040
 C            2.78461898        2.04149075        1.34228203
 C            0.83080285        2.28949548        2.74580651
 C            1.62027168        2.81801897        1.73607112
 C           -1.06810993        0.81448746        3.14951836
 C           -0.46340562        1.85176340        2.41579137
 C           -1.84523221       -1.39776167        2.58762102
 C           -2.00193200       -0.01011651        2.52154822
 C           -0.93323871       -3.03669507        1.09943373
 C           -1.96297347       -2.13716448        1.40475329
 C           -0.80485764       -3.52319357       -0.18382348
 C            1.32672403       -2.33906458       -0.24103759
 C            0.41153729       -3.16910453       -0.89091842
 C            2.54020874       -0.23791900       -0.19747495
 C            1.83212647       -1.22004977       -0.91207837
 C            2.90036225        2.13184621       -0.08761195
 C            2.90245132        0.95931361       -0.83022666
 C            1.00289198        3.29959011        0.52216817
 C            2.03042104        3.21996586       -0.49695123
 C           -1.04938688        2.24892641        1.20084011
 C           -0.28515761        2.88331438        0.21412952
 C           -2.76369547        0.52746138        1.49814317
 C           -2.30468850        1.75227498        0.86969127
 C           -2.80235603       -1.65997384        0.38933763
 C           -3.25957015       -0.34937596        0.45267318
 C           -1.91688576       -3.38531365       -1.09034464
 C           -2.87296994       -2.33287673       -0.82723157
 C            0.05362354       -2.91377994       -2.27091178
 C           -1.36892415       -3.17793339       -2.41446996
 C            1.57110429       -1.04863493       -2.28155313
 C            0.58813077       -1.81093964       -2.91838296
 C            2.77414060        1.08296299       -2.20817120
 C            2.13125459        0.02647272       -2.96115308
 C            1.64729170        3.27276857       -1.82184275
 C            2.29683211        2.35261022       -2.73649691
 C           -0.67751057        2.83940797       -1.13222010
 C            0.22633717        3.23271461       -2.12376921
 C           -2.71857767        1.71781479       -0.51990734
 C           -3.35911956        0.43416243       -0.76727727
 C           -1.89561182        2.25866616       -1.49865829
 C           -3.04060098       -1.57324540       -2.06026882
 C           -2.18751318       -2.18404992       -3.07789085
 C           -3.18527895       -0.18305834       -2.00359720
 C           -0.11955647       -1.27109987       -3.99454691
 C           -1.57339261       -1.36991427       -4.01448595
 C            1.39599600        0.64441355       -4.05692708
 C            1.36487459        2.07429919       -3.80933987
 C            0.09646687        2.70116716       -3.46863103
 C            0.23900418        0.03425065       -4.51583628
 C           -2.11389254        1.87066595       -2.82009824
 C           -2.77371981        0.59904269       -3.08185669
 C           -2.09059633       -0.03167391       -4.19569812
 C           -1.07578899        2.05368936       -3.82248882
 C           -0.98352753        0.82165012       -4.58860434
