   70
C70 / DATE: 7/ 1/2024 / Origin: Program Fullerene / C70 from database
 C            1.73422035        0.00000000        4.65835186
 C            0.89276684       -1.17028884        4.49068592
 C            1.35080688       -1.89218810        3.31325771
 C            2.70116759       -0.00000000        3.57917335
 C            2.55789425       -1.24044352        2.83855026
 C            2.55789425        1.24044352        2.83855026
 C            0.89276684        1.17028884        4.49068592
 C            1.35080688        1.89218810        3.31325771
 C           -0.48775841       -0.72974439        4.53915955
 C           -0.48775841        0.72974439        4.53915955
 C           -1.41547086       -1.40992661        3.76187883
 C            0.41261671       -2.33522162        2.38306759
 C           -0.94037081       -2.31792873        2.72499347
 C            0.77879438       -2.44174243        1.03749998
 C            2.78948311       -1.19058329        1.47181568
 C            2.05040995       -2.01887113        0.62921194
 C            2.78948311        1.19058329        1.47181568
 C            3.27898205        0.00000000        0.94666403
 C            2.05040995        2.01887113        0.62921194
 C            0.41261671        2.33522162        2.38306759
 C            0.77879438        2.44174243        1.03749998
 C           -1.41547086        1.40992661        3.76187883
 C           -0.94037081        2.31792873        2.72499347
 C           -2.55902073       -0.69527632        3.22226020
 C           -2.55902073        0.69527632        3.22226020
 C           -1.94432447       -2.35015591        1.67515722
 C           -2.99479706       -1.41301073        2.03594338
 C           -0.19745301       -2.72935948        0.08136110
 C           -1.53320548       -2.44180858        0.35005689
 C            0.18493216       -2.98958979       -1.22460858
 C            2.39143916       -2.04455833       -0.72692638
 C            1.53348014       -2.65492929       -1.64017986
 C            3.68699661       -0.00000000       -0.37401480
 C            3.37333708       -1.16370312       -1.18106351
 C            2.39143916        2.04455833       -0.72692638
 C            3.37333708        1.16370312       -1.18106351
 C            1.53348014        2.65492929       -1.64017986
 C           -0.19745301        2.72935948        0.08136110
 C            0.18493216        2.98958979       -1.22460858
 C           -1.94432447        2.35015591        1.67515722
 C           -2.99479706        1.41301073        2.03594338
 C           -1.53320548        2.44180858        0.35005689
 C           -3.65144592       -0.72879722        1.02539279
 C           -3.65144592        0.72879722        1.02539279
 C           -2.36308292       -1.96414326       -0.67110691
 C           -3.45215353       -1.15425274       -0.34878407
 C           -0.72189579       -2.63903409       -2.30297440
 C           -1.92585479       -2.00561973       -1.99854864
 C            1.47366204       -2.19281115       -3.02195976
 C            0.07990600       -2.19094765       -3.43410006
 C            3.37640639       -0.72807734       -2.56640708
 C            3.37640639        0.72807734       -2.56640708
 C            2.31834029       -1.17571129       -3.44831563
 C            1.47366204        2.19281115       -3.02195976
 C            2.31834029        1.17571129       -3.44831563
 C            1.76147536       -0.00000000       -4.10100332
 C           -0.72189579        2.63903409       -2.30297440
 C            0.07990600        2.19094765       -3.43410006
 C           -2.36308292        1.96414326       -0.67110691
 C           -3.45215353        1.15425274       -0.34878407
 C           -3.73332663        0.00000000       -1.17803849
 C           -1.92585479        2.00561973       -1.99854864
 C           -2.52005839       -1.16049493       -2.93778657
 C           -3.25969924        0.00000000       -2.47579735
 C           -2.52005839        1.16049493       -2.93778657
 C           -0.39364484       -1.17564776       -4.25604257
 C            0.42936389        0.00000000       -4.49806698
 C           -0.39364484        1.17564776       -4.25604257
 C           -1.76332834       -0.72829534       -4.10012263
 C           -1.76332834        0.72829534       -4.10012263
