   70
C70 / DATE: 7/ 1/2024 / Origin: Program Fullerene / C70 from database
 C            1.08297995       -0.00196137        4.73269460
 C            2.38755185       -0.33723590        4.21392687
 C            2.34496527       -1.73761652        3.81856849
 C            0.26508341       -1.20308685        4.64565564
 C            0.94570470       -2.10561443        3.73912427
 C           -1.07730615       -0.78174332        4.31944137
 C            0.33560014        1.06163054        4.09309301
 C           -1.05304806        0.66354255        4.15236055
 C            0.80548338        1.63876588        2.91238572
 C            2.89228547        0.40458400        3.07642718
 C            2.06977391        1.31386643        2.40965090
 C            3.16066013       -1.87088151        2.63415768
 C            3.64368614       -0.54349879        2.28469518
 C            2.56088843       -2.42553116        1.43849072
 C            0.37685229       -2.38854629        2.49153332
 C            1.20113909       -2.73817258        1.40920928
 C           -1.70695943       -1.32878516        3.13565623
 C           -0.99552722       -2.17373847        2.28275224
 C           -1.90028977        0.97986952        3.02067469
 C           -2.48031081       -0.25717542        2.54165965
 C           -0.10589821        2.27240250        2.06493516
 C           -1.45092060        1.87809657        2.06912317
 C            0.37467444        2.98484958        0.96459648
 C            2.36287530        1.63800348        1.08324742
 C            1.64254353        2.65903946        0.46043331
 C            3.57825366       -0.42806244        0.84211890
 C            3.11506957       -1.69513180        0.31661912
 C            3.05248239        0.72083326        0.27836763
 C            2.38433032       -1.69265926       -0.86467361
 C            0.62492917       -2.96003903        0.15823147
 C            1.36340451       -2.62492855       -0.98340486
 C           -1.53625814       -2.40474579        1.01764415
 C           -0.76033053       -3.06554858        0.06934146
 C           -2.78368644       -0.36457497        1.19038646
 C           -2.60523991       -1.60509502        0.59472225
 C           -2.16509703        1.94797835        0.88028280
 C           -2.74459722        0.77676199        0.37756693
 C           -0.56928326        3.61354692        0.15023502
 C           -1.87664312        2.99947365        0.02789222
 C           -0.19662808        4.12342765       -1.15315992
 C            1.97566215        2.95955826       -0.86177072
 C            1.10676470        3.78848679       -1.67146174
 C            2.76201672        0.68180333       -1.07899199
 C            2.31078591       -0.52239299       -1.63269558
 C            2.46690416        1.88326801       -1.69933417
 C            1.49560700       -0.51259591       -2.77551534
 C            0.80566715       -2.80624816       -2.23738991
 C            0.87372764       -1.69916550       -3.17525369
 C           -1.33627056       -3.42880381       -1.14432455
 C           -0.50968467       -3.40362678       -2.33476804
 C           -3.14250595       -1.79163661       -0.66743353
 C           -2.62293643       -2.86055271       -1.49446055
 C           -2.96624320        0.63403268       -1.00126129
 C           -3.33003773       -0.61884352       -1.50365178
 C           -2.17938833        2.87773398       -1.38232467
 C           -1.19364051        3.66473366       -2.10842037
 C           -2.56807563        1.64236213       -1.88632849
 C            0.92544258        3.12017507       -2.95109301
 C            1.69147356        1.88299573       -2.92160563
 C            1.09167497        0.70186496       -3.34165961
 C           -0.49858110        3.05843775       -3.23047034
 C           -2.21720391        1.31720354       -3.19678107
 C           -0.11857834        0.77788763       -4.03132291
 C           -1.01511631        1.89226574       -3.77576719
 C           -0.39218874       -1.64453852       -3.88762892
 C           -1.23971010       -2.71055386       -3.38243418
 C           -2.54986424       -2.37385398       -2.86146741
 C           -2.96757935       -0.98268045       -2.86354031
 C           -0.95023001       -0.40453491       -4.16138232
 C           -2.27108454       -0.06508067       -3.63612388
