84

 C     -1.5833347765     0.7312666083     3.5714478604
C     -2.519265295     1.4729867632     2.8192002972
C     -3.6141896714     0.7327073586     2.2948468831
C     -4.3065408902     1.1733217596     1.1074897565
C     -3.8717971159     2.3207780036     0.4694318337
C     -0.6461838033     3.0874463373     2.269582794
C     -2.0576081566     2.6937242734     2.1606209437
C     -2.7974210869     3.1125318874     1.0210762185
C     -0.0946350743     3.8793436919     1.2346115874
C     -0.8318459398     4.1345376872     0.0287456809
C     -2.134543855     3.7355970415     -0.0893011326
C     0.2943699682     2.2981890965     3.060523084
C     1.7362423899     2.3014424307     2.7454682849
C     -0.2279915592     1.1830990301     3.7518455425
C     2.5195163321     1.1955374276     3.1598180921
C     -4.5411046715     0.0033933147     -1.0429574602
C     -3.9974990691     1.1674138152     -1.7064536556
C     -4.698227322     0.0070031006     0.3422118619
C     -3.731263833     2.3254927565     -0.9828303153
C     -2.6105887863     3.1362851417     -1.3290131082
C     -3.0565416819     0.732904215     -2.7024256159
C     -1.9077440929     1.4737253472     -3.0130817745
C     -1.6910277354     2.7562287993     -2.3344442915
C     0.6932035229     2.665173746     -2.9847081468
C     -0.3369700205     3.3065154834     -2.2544404141
C     0.0585749612     4.0338960622     -1.0989247729
C     -3.8724947992     -2.3063316568     0.481408979
C     -3.7319600723     -2.3186044225     -0.9708081479
C     -4.3068859812     -1.1554558977     1.1135171739
C     -3.9978510231     -1.164207551     -1.7004175339
C     -3.0567607921     -0.7351404291     -2.698624448
C     -2.6115256091     -3.1315149779     -1.3127836971
C     -1.6918519735     -2.7569439769     -2.3201674666
C     -1.9081856859     -1.4779016156     -3.0054375069
C     0.4498596687     1.4008939657     -3.6824731453
C     -0.7763738071     0.7359088227     -3.5829370918
C     -0.7765958104     -0.7433867978     -3.5791038604
C     0.4494378133     -1.4092490296     -3.6751933338
C     -0.8330815545     -4.1232649844     0.0501302922
C     -2.7983514225     -3.0955396182     1.037148989
C     -2.1356574722     -3.7245386354     -0.0699874665
C     0.0573673013     -4.0287284109     -1.0780475866
C     0.6924032465     -2.6699673335     -2.9708856394
C     -0.3379626923     -3.3072148646     -2.2373160354
C     -0.0957933387     -3.8620495372     1.2546574234
C     -0.6471041592     -3.0646343249     2.2855125513
C     -2.0584083927     -2.671057059     2.1745086262
C     -2.5196999177     -1.4467886392     2.8267561691
C     -3.6144031703     -0.7089075464     2.2985814548
C     -1.583547927     -0.7014639911     3.5751582036
C     1.7355568597     -2.2768907657     2.7573231953
C     0.2936853176     -2.2715741226     3.0723590536
C     -0.2283406599     -1.152761328     3.7578917631
C     2.5191621208     -1.1690859632     3.1659369475
C     1.9050984363     0.0147153834     3.7028856878
C     0.5647835262     0.0156899388     4.0016733552
C     1.2914435702     -3.8031589222     0.883797217
C     3.3819944259     -2.5908136682     0.8920204841
C     2.2269777471     -3.0409324683     1.6107548154
C     2.0353611203     -2.6618947886     -2.5263187747
C     2.3976212154     -3.2454491122     -1.2789990357
C     1.3821607106     -3.9213171713     -0.555512663
C     3.4342406256     -2.6306840923     -0.5350630105
C     4.5456402889     -0.6963970446     0.1197400433
C     4.1046636152     -1.4133311204     1.3086507836
C     3.6704219322     -0.7236176465     2.4162611418
C     4.5458421217     0.7064642951     0.1161057384
C     2.6645313058     -1.4166141366     -2.9745887276
C     3.6304529575     -0.7375463292     -2.185744497
C     4.0943707575     -1.4200804089     -1.0127882277
C     2.6649568834     1.411219303     -2.9819112176
C     1.6947395784     0.6942607645     -3.7307535353
C     1.6945285827     -0.703253454     -3.7271391149
C     4.0947981328     1.4244099712     -1.0201539833
C     3.6306731873     0.7359522144     -2.1895608076
C     1.3833372913     3.9287948756     -0.5758378148
C     3.4350286838     2.6376695292     -0.5487067386
C     2.3985944472     3.2488847099     -1.2958166724
C     2.0361585915     2.6589917091     -2.5401002614
C     3.670645315     0.7458467199     2.4124582165
C     4.1050823494     1.4296806485     1.3012867317
C     3.3827702603     2.6052089379     0.8785640509
C     2.227890923     3.0593903918     1.5949568595
C     1.2925826129     3.8181204828     0.8640620614


