84

 C     -4.0583506861     0.7947068914     -1.203955182
C     -4.2687097069     0.0673229812     -0.000230227
C     -4.0608447256     0.8011036894     1.2000373527
C     -3.547831684     2.1247612731     -1.2069491068
C     -3.2157078903     2.8108261149     -0.006435442
C     -3.550322579     2.1311618392     1.1970167125
C     -4.0382113951     -1.3870129924     0.0038828505
C     -3.6147283294     -2.0139843454     1.2079956628
C     -3.5285247831     0.1249082495     -2.3818213143
C     -3.3144515899     -1.2260903002     -2.3780239224
C     -3.6122373131     -2.0203890738     -1.1959978932
C     -1.6448299225     3.1245379741     -2.3878307985
C     -2.7077464033     2.2635755288     -2.3866242474
C     -2.5936458278     0.9914653738     -3.0474904523
C     -1.335436295     3.925040875     1.1945032922
C     -2.0714699293     3.7376235601     -0.0077104582
C     -1.3329413461     3.9186476343     -1.2093780206
C     -1.8726768001     -3.0061780114     -2.3717475818
C     -2.7156008387     -3.127521964     -1.1921218097
C     -2.1886696668     -3.6707329756     0.0118829325
C     -2.7180879079     -3.1211224111     1.2118780717
C     -0.5956209272     -3.4961790509     -2.3690437875
C     1.6669197171     -3.1377074269     -2.3677352145
C     0.4484976354     -2.7646331121     -3.0343406616
C     2.7298365711     -2.2767456228     -2.3689076868
C     -0.4250343055     2.7479220099     -3.0499137042
C     -0.2165570965     1.4342173245     -3.5521365912
C     -1.3525953298     0.5140866632     -3.5508276515
C     -1.1237672618     -0.9297900134     -3.5466716308
C     -2.1569043583     -1.7647937147     -3.0397864205
C     1.1482750853     0.9103860674     -3.5492106293
C     1.3771040503     -0.5334922706     -3.5452077821
C     0.2410657033     -1.4536227427     -3.5439818113
C     2.6171102352     -1.008173898     -3.0367714344
C     -0.0545049992     -4.1485951768     -1.1865853012
C     -0.8138861119     -4.1983266333     0.0147151619
C     -0.0569950051     -4.1421897272     1.2172981816
C     -0.6005485084     -3.4834878962     2.3951414244
C     -1.8776071589     -2.9934844253     2.3925835799
C     2.0886265661     -3.7381057628     0.0164929118
C     1.350106571     -3.9191222854     1.2181583178
C     1.3525863911     -3.9255323478     -1.1857210459
C     -3.5334679591     0.137592772     2.3825525599
C     -3.3193840233     -1.2134029637     2.3863872387
C     -2.1632102601     -1.7485638404     3.0534054574
C     0.4421940796     -2.7483996773     3.058690022
C     1.3697558592     -0.5145715525     3.5595898364
C     0.2337142338     -1.4346990829     3.5609148303
C     -1.1311211428     -0.9108709322     3.5579812436
C     2.1740611982     1.7643047046     3.0485512177
C     1.1409239578     0.9293057958     3.5554387834
C     -0.2239105301     1.4531350065     3.5527595839
C     -1.3599531877     0.5330049066     3.5539774183
C     -2.5999586385     1.0076831892     3.0455360817
C     2.7249164357     -2.2640526074     2.3953933871
C     1.6619924178     -3.1250090608     2.3966044011
C     2.610809503     -0.9919432385     3.0562538665
C     3.5674808083     -2.1316447063     -1.1882516952
C     3.2328693221     -2.8113103643     0.0152057708
C     3.5649934004     -2.1252434433     1.2157129227
C     -2.7126849715     2.276253051     2.3776769104
C     -1.6497681201     3.1372177176     2.3765140728
C     -0.4313442787     2.764144338     3.0431224987
C     2.7327540737     3.127039884     1.200894813
C     1.8898344513     3.0056892749     2.3805216537
C     0.6127753724     3.4956910353     2.3778252268
C     2.7352431038     3.1206370092     -1.2031049135
C     2.2058250817     3.6702500977     -0.0031026303
C     3.5456938595     -0.1253891687     2.3905822418
C     3.6318787402     2.013504955     -1.1992335829
C     4.0553684028     1.3865315859     0.0048811709
C     3.6293954162     2.0199013745     1.2047600375
C     3.3316131665     1.2256066151     2.3867836846
C     3.3365384801     1.2129211437     -2.3776258372
C     3.5506123602     -0.1380760073     -2.373787011
C     4.0779995973     -0.8015913764     -1.1912797242
C     4.2858677006     -0.0678058565     0.0089896192
C     4.0755164902     -0.7951858126     1.2127133474
C     0.617706267     3.483008845     -2.3863616937
C     1.89476182     2.9930080125     -2.3838107459
C     2.1803605537     1.7480822036     -3.044638239
C     0.0716638683     4.1481090782     1.1953710389
C     0.8310425019     4.1978436028     -0.005927943
C     0.0741487451     4.1417136231     -1.2085155643


