84

 C     4.1655105173     1.4449715886     0.6864512975
C     3.3988262041     2.4466113969     1.4152354938
C     4.1637516958     1.4480682427     -0.7013439999
C     2.6967883402     3.4136277998     0.7280797814
C     1.3925378061     3.7978222032     1.183991229
C     2.6543575813     -0.4949114407     3.2607988175
C     4.0721939493     0.2037498045     1.389139729
C     3.3457668156     0.4882592244     2.6180680975
C     0.6860381552     -1.4534084496     3.9154954573
C     1.3910931999     -0.2024633003     3.8800457661
C     -0.681718998     -1.455285312     3.9172818883
C     -1.4096650833     3.7940071665     1.1876936901
C     -0.7401346764     3.1326865326     2.2539015597
C     0.727590595     3.13466387     2.2519350561
C     1.4625594009     2.0945168023     2.9686356995
C     2.8014375488     1.8246008927     2.5641532008
C     -1.4703903119     2.0905321651     2.9725257543
C     -0.7309899807     1.0358445481     3.6696007949
C     0.727870264     1.0378473992     3.6676844604
C     -1.3902632511     -0.2062644315     3.8836894356
C     2.6360541304     -1.8396041461     2.7203975398
C     3.2103204049     -2.1055063106     1.4432896764
C     3.9125585984     -1.0354937384     0.7194990405
C     3.9106648135     -1.0322371899     -0.7448056288
C     4.0685697925     0.2099863482     -1.4093174834
C     2.6026390039     -3.1523174011     0.7144649468
C     0.7381856175     -3.3956578482     2.3456783426
C     1.4206739797     -3.8039137171     1.1657325517
C     1.4228582725     -2.4513544222     3.1495925146
C     2.600717903     -3.1490442316     -0.745788266
C     3.2065448149     -2.0990071625     -1.4715305339
C     2.628958051     -1.8274118004     -2.7459221183
C     2.6458468154     -0.4803204517     -3.2803483871
C     3.3389057151     0.4999666741     -2.6350345525
C     -0.6850666875     -4.2182451728     -0.0137635816
C     0.6867328041     -4.216397122     -0.0155451407
C     1.4175839354     -3.7985840311     -1.1968692344
C     0.7320415887     -3.3850826317     -2.3732124628
C     1.4146137697     -2.4372171768     -3.174666626
C     -1.4177854924     -2.4552369576     3.1532907429
C     -0.7326360881     -3.3976738011     2.347596039
C     -1.4170676801     -3.8077788046     1.169422445
C     2.6949128054     3.4168907027     -0.7302769763
C     3.3951240667     2.4529453291     -1.4235981477
C     2.7947237259     1.8360563535     -2.5736985467
C     1.3809569128     -0.1850723161     -3.8949215278
C     -0.740556137     1.0522854877     -3.6734037827
C     0.7182855685     1.0542746779     -3.6752824198
C     1.4548226348     2.1078143503     -2.9734612481
C     -2.8162548185     1.8284605943     -2.5663449573
C     -1.4781429034     2.1038251991     -2.9696034842
C     -0.7459920013     3.1427209107     -2.2482201935
C     0.7217312781     3.1447374841     -2.2501685597
C     1.3894677419     3.8031138349     -1.1810154746
C     -0.6919386382     -1.4377000359     -3.9323805142
C     0.67582358     -1.4358231484     -3.9341247605
C     -1.4004001107     -0.188846703     -3.8913306868
C     -1.4201261205     -3.8024443207     -1.1931808623
C     -0.7387792758     -3.3870919902     -2.3712997491
C     -1.426018096     -2.4410651049     -3.1709645654
C     0.6685296213     4.2051601223     0.0033424614
C     -0.6898472846     4.2033137941     0.0051399046
C     -1.4127419887     3.79928187     -1.1773221117
C     -4.1792882242     1.4367068589     -0.6903738861
C     -3.4153235635     2.4436747784     -1.4146361649
C     -2.7159401487     3.4095205823     -0.7231432899
C     -4.1774998048     1.4335803326     0.6974246711
C     -2.6628869855     -0.4875127232     -3.2734125373
C     -4.0825925385     0.1989137213     -1.3986376388
C     -3.3569632409     0.4908802688     -2.6262775651
C     -2.6038612421     -3.1561328047     -0.7390140394
C     -4.0789238433     0.1926089967     1.3998251505
C     -3.9176581934     -1.0461807236     0.7297352689
C     -3.9195586438     -1.0428859067     -0.7345651732
C     -3.2144265617     -2.1077321495     -1.4631521923
C     -2.6408947255     -1.8345544511     -2.7390431814
C     -3.3500839771     0.4790907935     2.6268496717
C     -2.6543312667     -0.5021837673     3.2677435125
C     -2.6337534893     -1.8468066321     2.7272669643
C     -3.2106295132     -2.1142844748     1.4516641808
C     -2.6019871484     -3.1594288184     0.7212460591
C     -2.7140405592     3.4062320023     0.7352079772
C     -3.411635004     2.4373069776     1.4241986406
C     -2.8095557213     1.8169344403     2.5715367414


