84

 C     -1.3753701452     -3.4929830986     -1.3060951896
C     -2.3576611032     -2.6925473905     -1.9256573537
C     -3.4937824511     -2.3810356025     -1.1302576291
C     -4.2807271908     -1.1987092754     -1.385438619
C     -3.882552426     -0.3366678871     -2.3962190252
C     -0.501003397     -1.7372144787     -3.3656874214
C     -1.9288582775     -1.7952682752     -2.9956675296
C     -2.7394742825     -0.6571904881     -3.2265714715
C     -0.0112888918     -0.5385926578     -3.9137212093
C     -0.8150629705     0.6476266788     -3.9422923098
C     -2.1442449054     0.5946336471     -3.6036675483
C     0.4822615349     -2.6237946496     -2.7316043456
C     1.9111595989     -2.2577888951     -2.6726032997
C     -0.0065617224     -3.5254359062     -1.7698441067
C     2.7233729326     -2.8421175663     -1.6703148379
C     -4.7499164699     0.6964494261     0.1063961487
C     -4.2753471715     1.5922188797     -0.9270360049
C     -4.7526147326     -0.6788583007     -0.1194958278
C     -3.8797378792     1.0972934053     -2.1606719822
C     -1.3612204073     3.7293780941     -0.1197510628
C     -3.483972007     2.6277144372     -0.3075607864
C     -2.3462056298     3.1730521163     -0.9622500997
C     -1.9202384627     2.6638507377     -2.2634991012
C     -0.4922787599     2.7215020095     -2.6333587007
C     -2.7349689249     1.6623243657     -2.8456352857
C     -0.0067901164     1.7592878777     -3.5363166357
C     -3.8799237465     -1.0828623375     2.1460403759
C     -3.8771079612     0.351090848     2.3815869511
C     -4.2794898333     -1.5763479968     0.9131042505
C     -4.273925817     1.214580702     1.371505356
C     -3.4831315646     2.3940361532     1.1149418415
C     -2.3444872601     2.70141005     1.9083328099
C     -1.360382867     3.4982677907     1.2870347267
C     -0.8105110821     -0.6443557796     3.9222781546
C     -2.7360192662     -1.6520616732     2.8289977158
C     -2.1400828792     -0.5865272744     3.5859859873
C     -1.917068082     1.8025705521     2.977593231
C     -2.7314164448     0.6674555765     3.2099322169
C     -0.0024763601     0.5389312716     3.8922860504
C     -0.488790045     1.7393236107     3.3451038236
C     -0.0070051766     -1.7589477618     3.5148848108
C     -0.4975709825     -2.7193842574     2.6127789383
C     -1.9259567011     -2.6565345831     2.2454267494
C     -2.3560435528     -3.1641841599     0.9449274915
C     -3.4929653656     -2.6147064849     0.2922350719
C     -1.3745727557     -3.7240853231     0.1006993134
C     1.913602765     -2.9899576177     1.7865203756
C     0.4848139334     -3.3561197603     1.7271255269
C     -0.0052473615     -3.9028345189     0.5280398649
C     2.7246646184     -3.2230550477     0.6492114169
C     2.1296057343     -3.5985549398     -0.6031735295
C     0.7995622121     -3.9335852497     -0.6574169379
C     1.3630786659     -1.2988932159     3.4837201244
C     3.4829982316     -1.1287717962     2.3737678292
C     2.3444466639     -1.9211024932     2.6842115404
C     2.3501275209     0.9494745349     3.1558442988
C     1.3658599365     0.1078986459     3.7148265172
C     3.4858000177     0.2937146436     2.6074340077
C     1.9240168389     2.2511272579     2.6477847261
C     0.0093442878     3.5257423796     1.7483820025
C     0.4965727768     2.6223253845     2.7092871048
C     2.7365915543     2.8325032039     1.6440690182
C     4.7461449051     -0.1214200711     0.6727686992
C     4.2703686141     -1.3860812441     1.1921761102
C     3.8702763981     -2.3957846821     0.3297593786
C     4.7453538546     0.1044711879     -0.7025459889
C     3.8783630265     2.3820098365     -0.3580087178
C     3.879185592     2.1464599061     1.0759467782
C     4.2749645226     0.9124574098     1.5698086716
C     4.2732648662     1.3708582835     -1.2211235791
C     0.814993165     3.9309668676     0.6345497164
C     2.7352125956     3.2134444132     -0.6754523859
C     2.1437099315     3.5910971757     0.5779757284
C     1.3616608539     1.2942461152     -3.5075557686
C     3.4828976304     1.1164248497     -2.4013279741
C     2.3466897998     1.9128863283     -2.7097724994
C     1.9213111979     2.9832999379     -1.8113356445
C     0.4939643701     3.3546588617     -1.7494314354
C     0.0079950415     3.9031526127     -0.5494995155
C     3.8694465889     -2.1602421345     -1.1041974356
C     4.268844239     -0.9276797421     -1.5987575049
C     3.480115347     -0.3060729399     -2.6349994242
C     2.3411036296     -0.9576921726     -3.1814106336
C     1.3589174363     -0.1125383372     -3.7386650932


