84

 C     -3.5024007203     0.2676156803     -2.3552763136
C     -4.1521602887     -0.2341644853     -1.1800415028
C     -1.2128940964     1.0293761879     -3.9271044958
C     -1.6047179292     -0.2892746127     -3.8733317169
C     -2.7835942357     -0.6767690596     -3.1248202545
C     0.1768636931     1.3518203911     -3.9358989736
C     -0.6190234856     -1.3243140122     -3.7689770115
C     0.7580832649     -1.0379739926     -3.6602051787
C     1.1774367518     0.3605075391     -3.7662621742
C     3.2602915086     -0.1892737013     -2.5601435581
C     2.4291433552     0.7882903002     -3.1452565249
C     2.5559184648     2.1067243306     -2.6183300846
C     -2.5679728623     -2.017044596     -2.66474303
C     -3.1420970505     -2.4757920129     -1.4467585988
C     -3.9584204369     -1.5577618415     -0.7266704229
C     -2.4190545932     -3.458382596     -0.7163773394
C     -1.2384547224     -2.4222738732     -3.0567513912
C     -0.4828899609     -3.3150219203     -2.2824449419
C     -1.1525692257     -3.911962415     -1.1609746792
C     0.9537614455     -4.1773074682     0.0183210876
C     -0.4042418542     -4.2728248826     0.0184636677
C     2.8688929543     -1.5910134997     -2.5236388394
C     1.5919701802     -2.0154746479     -2.9522079627
C     0.974297887     -3.1535220294     -2.261375694
C     1.6718459057     -3.7309020649     -1.1687710713
C     -2.4192341399     -3.4536884765     0.7475671496
C     -3.1424600439     -2.4664384013     1.4714455754
C     -3.9586047894     -1.5530472832     0.7452766441
C     -2.5686315136     -1.9998921199     2.6866036301
C     -1.2392105733     -2.4025916298     3.0815337784
C     -0.4834491204     -3.3002850156     2.3131580286
C     -1.152856397     -3.9044040419     1.1953776173
C     -2.7843720662     -0.6566993211     3.1380241171
C     -3.5029962825     0.2827299676     2.362262869
C     -4.1524603546     -0.2265734221     1.1901036533
C     -4.3027883068     0.5982566342     0.0023568344
C     -3.8549952391     1.8910570803     -0.0017305736
C     -1.605694603     -0.2644095632     3.8843383968
C     -1.2139001412     1.0545572828     3.9297594417
C     -1.9455877587     2.0539669931     3.162029745
C     -3.0491707269     1.6841528155     2.3590103618
C     -3.2347733618     2.4625401625     1.1796463955
C     1.6715596372     -3.7232958349     1.2026958489
C     0.9737471113     -3.1389197371     2.2914035822
C     0.7571707719     -1.0144538101     3.6765932259
C     -0.6199583942     -1.3000885772     3.7868579013
C     -1.9447726619     2.0336911538     -3.1659798745
C     -3.0485661569     1.6690340188     -2.3608923621
C     -3.2344665555     2.4549565551     -1.1865876828
C     -2.2589826478     3.3836616725     -0.737990625
C     -1.0764322429     3.6470728005     -1.467419154
C     -0.9962815825     3.0167722376     -2.7438940776
C     1.4342826384     3.0170254857     -2.6502243799
C     0.288846757     2.6477667824     -3.2985790698
C     1.3803927279     3.7628971875     1.3897452755
C     0.152372779     3.9947070084     0.7239926336
C     0.1525664521     3.9900092457     -0.7398876621
C     1.3807534649     3.753932846     -1.4038371014
C     -2.2591713465     3.3883502295     0.7253634168
C     -0.9969873557     3.0343286777     2.7338994921
C     -1.076808026     3.6564349468     1.4533930613
C     3.2883802708     2.377983413     1.4154174642
C     2.5772682783     3.412570036     0.6835363064
C     2.5774468363     3.4081449413     -0.695106615
C     4.0662517902     0.1026314932     1.4225284407
C     3.9847421313     1.3474536092     0.7366227534
C     0.2880039329     2.6688884947     3.2912593853
C     3.259653021     -0.1728069353     2.5717231044
C     2.4283564909     0.8084772996     3.1503694245
C     2.5552573256     2.1235051629     2.615046679
C     1.433604302     3.0339827335     2.6408353164
C     2.9219054396     -3.2170562809     0.7465417675
C     3.534749192     -2.1794367807     1.4296885754
C     2.8682660977     -1.5747547595     2.5441004405
C     1.5912425699     -1.9964628778     2.9750722161
C     1.1764909512     0.3846845077     3.7737953377
C     0.175864848     1.3770512648     3.9368360441
C     4.2353869399     -1.1419284579     -0.6828436962
C     3.5350980761     -2.1885342037     -1.4052074637
C     2.9220831863     -3.2217429396     -0.7155719339
C     4.2352166699     -1.137486862     0.7008020346
C     3.2887407211     2.3688894236     -1.4201825493
C     3.9849270494     1.3427275483     -0.7346340566
C     4.0666099792     0.0935349014     -1.4125380837


