84

 C     1.9110851341     0.4602291418     -3.9344903741
C     2.2468074476     -0.9330964299     -3.666974789
C     0.6199613851     0.8051238581     -4.278454348
C     1.2734094652     -1.9069544636     -3.7576379615
C     1.21869645     -2.9413087926     -2.7661674383
C     -0.5470489004     4.1361722706     0.5863568293
C     0.3812604638     3.8902086267     -0.4641429578
C     0.0320750892     1.9837649939     -3.7117349465
C     2.6393756776     1.2872534625     -3.0171380229
C     2.0498763538     2.3984780584     -2.3511898615
C     0.683813354     2.7633720476     -2.7150725681
C     -0.1526138398     3.5111407805     -1.7691108371
C     3.5404115649     0.3999696144     -2.3197481985
C     2.5865936304     2.7796552329     -1.0395598473
C     1.7543485423     3.5235229859     -0.0984278975
C     4.0374065946     0.7529057329     -1.1049374574
C     3.6647823517     2.0153950081     -0.5110231051
C     3.1843698759     -0.9745933404     -2.5829409079
C     3.090111042     -1.9190777318     -1.5223199381
C     2.0603252838     -2.9496193714     -1.6183680619
C     -1.384703886     1.7155435656     -3.6317219627
C     -1.5660431064     3.4125080331     -1.9042939051
C     -2.1594154001     2.4081923391     -2.7556697379
C     -1.956578147     3.9181635233     0.4394623825
C     -2.4611126008     3.5597506541     -0.7938912949
C     -3.6345256168     -1.2389001813     1.852304018
C     -3.9475717663     0.0600183209     1.6030089039
C     -3.4896379553     2.5309429384     -0.889834084
C     -2.4519301897     3.2679318368     1.6467076002
C     -3.4253921968     2.2940696098     1.5559532015
C     -3.9585289408     1.9154526419     0.2528041339
C     -3.3167674756     1.1137606517     2.3627781808
C     1.0372737691     3.4354425698     2.2879430017
C     -0.2344423073     3.7750672149     1.9491966435
C     -1.3510708534     3.0805288028     2.5461145844
C     -1.1534437849     1.8750805917     3.2766639643
C     -2.1833375742     0.8446467927     3.1805697203
C     2.0764739085     3.4354672911     1.2851316776
C     3.8880179097     1.8640532175     0.8972297778
C     3.1014620683     2.5672773754     1.7866794992
C     -3.2355463542     1.7422077197     -2.0599725208
C     -4.1822406205     0.4991593478     0.2474214722
C     -3.8354391257     -0.3285962657     -0.8573096052
C     -3.3393143397     0.3226808283     -2.0661573464
C     -2.5029584611     -0.4251461643     -3.0121253469
C     -1.6374341184     0.3133193328     -3.8673158038
C     -0.4085011233     -0.2238547606     -4.3743089951
C     -2.1668997081     -1.8205130313     -2.744405546
C     -0.995791855     -2.3498571309     -3.356106108
C     -0.0907335147     -1.5426304784     -4.1210814899
C     -3.5366654739     -2.1805960611     0.7618453935
C     -2.6653768938     -2.475096457     -1.5291942039
C     -3.4976057882     -1.7311294305     -0.5881206453
C     -0.1726534852     -3.3150478964     -2.6659021954
C     -0.6343548565     -3.9213504293     -1.5404861782
C     -1.9482723423     -3.6005789076     -1.0343192307
C     -2.1805407722     -2.8723216876     2.5476842562
C     -2.7136375969     -3.2508998047     1.244552809
C     -1.9270522349     -3.9539996923     0.3551104569
C     -0.8893526706     -3.2171004606     2.8915264777
C     1.272534669     2.379863595     3.2449680044
C     0.2196743983     1.5084102971     3.6425076054
C     0.5558261867     0.1130724948     3.9102715588
C     -0.4793569281     -0.9226794929     3.8136522287
C     -1.8454120592     -0.5578535373     3.4497417762
C     -2.6711353937     -1.5659361997     2.8772064912
C     -0.0637609876     -2.2622773641     3.5717263136
C     2.9238491462     0.5981669248     3.246950754
C     2.6061963595     1.9169708804     2.9939078834
C     2.2493492869     -1.5951338305     3.2537179392
C     1.914098055     -0.2833414771     3.7560647723
C     1.2905821543     -2.5543615235     3.1643064919
C     4.2237872832     0.4707156513     1.1647294934
C     3.2631453426     -1.4895421738     2.230633876
C     3.7548251973     -0.1448204095     2.3072572914
C     -0.5629775796     -4.3183975191     0.7184776574
C     0.2661956467     -4.1920804247     -0.4444597709
C     1.5617416151     -3.6041425904     -0.4031978241
C     -0.0583561502     -3.960028851     1.9518051419
C     1.2852449508     -3.468390111     2.0462183621
C     2.0956845683     -3.2250000618     0.9017420175
C     3.1309362296     -2.1893638515     0.9982917056
C     3.6268133114     -1.5380261221     -0.2106588301
C     4.2097632124     -0.2464623476     -0.0768102047


