84

 C     -2.6404280998     3.3644352793     1.0494046294
C     -1.4994002725     4.0802507036     0.5136625544
C     -3.5091818431     2.7033229641     0.2034520107
C     -1.2898290709     4.1246203796     -0.8585383475
C     0.0360547979     4.0266704507     -1.3709585369
C     -0.3904746346     3.8706185509     1.3941703132
C     0.928485765     3.7132108899     0.9181256125
C     1.1558410857     3.8163311408     -0.5270296305
C     3.2723781651     2.5665455089     -0.2687361879
C     2.3215482029     3.1612138399     -1.12148104
C     2.2460509265     2.6210383514     -2.4374175548
C     -1.9383592607     0.7192896489     3.5446121958
C     -2.7518528263     1.4576162568     2.6571391067
C     -2.2471988559     2.7403907799     2.2852500729
C     -0.8824866399     3.106498665     2.5330230333
C     -0.0266474916     2.2946108459     3.2929648367
C     -0.6348193426     1.1641619933     3.9126542849
C     1.4898945322     -0.0125512041     3.9746583817
C     0.1435345989     -0.0111856604     4.2026288029
C     3.0747060586     2.5323342318     1.1735246198
C     1.8725034291     2.9717930322     1.7650066471
C     1.3991377042     2.2722839961     2.9655099573
C     2.1525465207     1.171515348     3.445091829
C     -3.6459712864     0.7330245779     1.7487119944
C     -4.0337073712     1.404904844     0.5640568572
C     -1.9402093128     -0.7343702725     3.5424158359
C     -2.755580381     -1.4679349715     2.6527195303
C     -3.6478466752     -0.738319949     1.7464894953
C     -2.2541884246     -2.7508580006     2.2769522094
C     -0.8904157951     -3.1211848875     2.5236127247
C     -0.0325115432     -2.3137816433     3.2860019883
C     -0.6378061562     -1.1836685935     3.9091052057
C     -2.6490062005     -3.3701587358     1.0392293823
C     -3.5160737326     -2.7042801523     0.1952834453
C     -4.0372945986     -1.405625649     0.559812819
C     -4.2071584801     -0.6818193633     -0.6713922853
C     -4.2054173436     0.6852612988     -0.669329044
C     -1.5098052069     -4.0872576834     0.5013258144
C     -3.2657229766     -2.702044067     -1.240108578
C     -2.1923708293     -3.3945175432     -1.7582626165
C     -1.3003460958     -4.1280147545     -0.8710025975
C     2.1495345747     -1.1966936638     3.4415136594
C     1.3933308502     -2.2940873362     2.9586122458
C     0.9190111465     -3.7276231557     0.9068902548
C     -0.4003462649     -3.8831094114     1.3824548474
C     -2.1837165522     3.3960848654     -1.7480125034
C     -3.2588321797     2.7047881145     -1.2319477362
C     -3.5805295167     1.4058746798     -1.7534353892
C     -3.5841059675     -1.4007413627     -1.757673641
C     -1.6178632184     -1.4639969764     -3.2500549032
C     -2.7577455203     -0.7313160243     -2.7013231019
C     -2.7558718704     0.7371962452     -2.6991097088
C     0.7863064005     -1.3908629518     -3.8277373799
C     -0.4708215186     -0.7280123477     -3.7897294689
C     -0.4689566479     0.7313443453     -3.7875266728
C     -1.6141256654     1.4686216917     -3.2456266293
C     -1.4008505546     2.8031459446     -2.7972607094
C     -1.4079904792     -2.8004065071     -2.805717094
C     -0.0674297319     3.3362175738     -2.6485269982
C     0.9938157871     2.6505137409     -3.1589803538
C     0.7898515598     1.391101829     -3.8235367353
C     2.9120958829     -1.4216647614     -2.7990867602
C     2.0317146402     -0.6872652672     -3.6929461887
C     2.0334622577     0.6839328477     -3.6908735738
C     4.016865404     -1.4275312893     -0.662354936
C     3.7542526961     -0.7420120426     -1.8823209723
C     -0.0759352073     -3.3373257501     -2.6586037086
C     3.2658210307     -2.58333792     -0.2765150578
C     2.313483625     -3.1730119195     -1.1310457331
C     2.2393654639     -2.6286774152     -2.4453424943
C     0.9870569024     -2.6527830602     -3.1669823854
C     3.3278318516     -0.7425271565     2.7774878198
C     3.8010655112     -1.429347657     1.6710840941
C     3.0682317885     -2.5529779384     1.165843575
C     1.8649158443     -2.9911665125     1.7560002561
C     1.1461072177     -3.8269558867     -0.5385749141
C     0.0257892742     -4.0318915249     -1.3831251463
C     4.354196851     0.6809567119     0.5442402144
C     3.8046739272     1.4053207363     1.6753652366
C     3.3296871539     0.7163660486     2.7796883465
C     4.35243567     -0.7029706087     0.5421510738
C     2.9157092228     1.4133926402     -2.7948100882
C     3.7561250223     0.7288365404     -1.8800992065
C     4.0204822992     1.4100014448     -0.6580712044


