50
0 1
C        4.417446    0.101350    0.207355 
C        4.086280   -1.230042    0.222751 
C        3.343230   -1.564844   -1.033685 
C        3.862324    0.704549   -1.062845 
C        3.102606   -0.341933   -1.768296 
C        3.174241    1.840917   -0.704648 
C        3.691483    0.774897    1.346166 
C        3.088195    1.909835    0.823804 
C        3.117886   -1.495057    1.345496 
C        2.822336   -0.210746    1.982156 
C        2.246092   -2.367132   -0.648528 
C        2.072354   -2.271761    0.840823 
C        1.089544   -2.276317   -1.406988 
C        1.781925   -0.064547   -2.265383 
C        0.870134   -1.153360   -2.275305 
C        1.855235    2.135771   -1.211983 
C        1.145941    1.247666   -2.055484 
C        1.747372    2.256874    1.157463 
C        1.136884    2.749918   -0.098991 
C        1.466490    0.098521    2.264659 
C        0.942697    1.434403    1.972216 
C        0.745499   -2.115517    1.354032 
C        0.498050   -0.987549    2.189786 
C       -0.193274   -2.675872   -0.835681 
C       -0.361324   -2.674840    0.567194 
C       -0.584363   -1.000016   -2.413515 
C       -1.211588   -2.105774   -1.690323 
C       -0.314220    1.407099   -2.139118 
C       -1.196712    0.261961   -2.454951 
C       -0.197891    2.906111   -0.181787 
C       -0.898487    2.435879   -1.370818 
C       -0.511285    1.687966    1.961962 
C       -1.050331    2.618552    0.995357 
C       -0.874814   -0.688647    2.495239 
C       -1.395409    0.701941    2.401957 
C       -1.694733   -2.513224    1.048486 
C       -1.891913   -1.565491    2.146883 
C       -2.529575   -2.020486   -1.231365 
C       -2.779326   -2.354020    0.151600 
C       -2.609333    0.294699   -2.124502 
C       -3.264880   -0.840495   -1.586226 
C       -2.297104    2.430456   -0.988014 
C       -2.361531    2.514401    0.530033 
C       -3.151750    1.453831   -1.406024 
C       -2.799801    0.622334    1.975138 
C       -3.138286   -0.785872    1.860185 
C       -3.717128   -1.308166    0.702167 
C       -4.072740   -0.424524   -0.368721 
C       -3.280567    1.502931    0.985074 
C       -3.925877    0.943373   -0.204801 
