50
0 1
C       -3.593804   -0.660118   -1.523545 
C       -3.788955    0.575598   -0.715370 
C       -3.755939    0.205811    0.636395 
C       -3.294124   -1.770422   -0.569123 
C       -3.398538   -1.260931    0.716221 
C       -2.015016   -2.345696   -0.968435 
C       -2.466640   -0.477767   -2.325587 
C       -1.521982   -1.575275   -2.092575 
C       -2.832692    1.559698   -1.196528 
C       -1.952164    0.900527   -2.213060 
C       -2.237728    2.393608   -0.273152 
C       -2.914087    0.896103    1.572540 
C       -2.343813    2.103441    1.168240 
C       -2.307270   -1.390874    1.664722 
C       -2.044476   -0.086913    2.253522 
C       -1.087592   -2.786701    0.013615 
C       -1.239338   -2.281239    1.391549 
C        0.224623   -3.005706   -0.484613 
C       -0.150746   -1.358112   -2.288077 
C        0.701065   -2.289711   -1.644470 
C       -0.596332    1.145501   -2.293057 
C        0.340478    0.008753   -2.566330 
C       -0.870450    2.884460   -0.525972 
C       -0.056282    2.322595   -1.571284 
C       -1.096126    2.496604    1.771249 
C       -0.273915    3.164050    0.718904 
C       -0.734396    0.260272    2.682936 
C       -0.265243    1.607269    2.455533 
C       -0.047889   -2.054148    2.146346 
C        0.244099   -0.761011    2.682910 
C        1.344022   -3.118008    0.434601 
C        1.212111   -2.636472    1.716858 
C        2.137022   -2.008664   -1.482565 
C        2.546024   -2.481915   -0.201811 
C        1.703364    0.218327   -2.528087 
C        2.638613   -0.792803   -1.953005 
C        1.325409    2.476120   -1.433997 
C        2.227907    1.530916   -2.104155 
C        1.096778    2.870979    0.981542 
C        1.153711    1.863119    2.042570 
C        1.937893    2.758319   -0.123563 
C        1.695732   -0.473325    2.450496 
C        2.293344   -1.621598    1.953883 
C        3.138311   -1.589147    0.751133 
C        2.114715    0.848629    2.002144 
C        3.579054   -0.101662   -1.115179 
C        3.369239    1.341287   -1.317221 
C        3.114277    1.937413    0.018479 
C        3.598029   -0.350677    0.297753 
C        3.149716    0.909493    0.986623 
