50
0 1
C       -3.844491   -1.543331    0.471570 
C       -3.927670   -1.077005   -0.926716 
C       -3.828493    0.403438   -0.909710 
C       -3.618682   -0.333749    1.319730 
C       -3.695302    0.836476    0.476896 
C       -2.441657   -0.549406    2.092908 
C       -2.720283   -2.366518    0.593122 
C       -1.884018   -1.860506    1.694935 
C       -2.824315   -1.580846   -1.635756 
C       -2.052633   -2.474520   -0.736723 
C       -2.822582    0.769042   -1.853596 
C       -2.103596   -0.457609   -2.273756 
C       -2.049239    1.917262   -1.614572 
C       -2.804806    1.896904    0.748506 
C       -2.213479    2.582741   -0.367954 
C       -1.528029    0.523889    2.376838 
C       -1.761896    1.772631    1.765399 
C       -0.159634    0.164130    2.642353 
C       -0.520052   -2.059764    1.661727 
C        0.308078   -1.143027    2.392188 
C       -0.692720   -2.453156   -0.796194 
C        0.098512   -2.631064    0.450904 
C       -0.724199   -0.465487   -2.359627 
C       -0.018300   -1.665723   -1.864500 
C       -0.623622    1.944361   -1.982874 
C        0.053785    0.784068   -2.371084 
C       -0.890910    3.082886    0.056638 
C       -0.596038    2.588235    1.331764 
C        0.040817    2.865705   -1.038270 
C        0.986278    1.081900    2.427508 
C        0.771241    2.242462    1.657036 
C        1.762770   -1.127928    2.211152 
C        2.185454    0.280369    2.282965 
C        1.458790   -2.705464    0.358393 
C        2.357480   -2.011945    1.331203 
C        1.335655   -1.736991   -1.961496 
C        2.092520   -2.529965   -0.965264 
C        1.519133    0.734703   -2.254736 
C        2.173589   -0.536505   -2.263882 
C        1.354058    2.696817   -0.735262 
C        1.781570    2.560614    0.682222 
C        2.175222    1.779012   -1.537203 
C        3.252989    0.712887    1.473991 
C        3.010084    1.879201    0.670622 
C        3.348553    1.518129   -0.758535 
C        3.557121   -1.594905    0.612589 
C        3.356876   -1.985575   -0.818861 
C        3.438352   -0.731675   -1.632344 
C        3.960339   -0.267289    0.652914 
C        3.967375    0.272092   -0.777158 
