50
0 1
C        4.315768   -0.357446   -1.180108 
C        4.407581   -1.245330   -0.000173 
C        4.315741   -0.357781    1.179983 
C        4.065977    0.959692   -0.736205 
C        4.065963    0.959474    0.736477 
C        2.872524    1.486172   -1.430882 
C        3.102639   -0.773826   -1.959524 
C        2.297435    0.373571   -2.241846 
C        3.248851   -2.049825   -0.000278 
C        2.475873   -1.848638   -1.258754 
C        3.102646   -0.774399    1.959334 
C        2.475863   -1.849074    1.258291 
C        2.872513    1.485745    1.431278 
C        2.297445    0.372872    2.241939 
C        1.982888    2.271728   -0.743052 
C        1.982862    2.271465    0.743723 
C        0.579458    2.328927   -1.149055 
C        0.897464    0.231587   -2.361997 
C        0.056551    1.394324   -2.078808 
C        1.078257   -1.931280   -1.243503 
C        0.291776   -1.044366   -2.063703 
C        1.078337   -1.931726    1.242971 
C        0.425077   -2.364672   -0.000339 
C        0.897402    0.230880    2.362041 
C        0.291767   -1.044914    2.063334 
C        0.579399    2.328620    1.149694 
C       -0.240543    2.656237    0.000397 
C        0.056520    1.393742    2.079267 
C       -1.640446    2.466628    0.000352 
C       -1.339905    1.250347   -2.114415 
C       -2.226997    1.985532   -1.221029 
C       -1.153092   -1.189951   -2.069501 
C       -1.964342   -0.059674   -2.376392 
C       -0.926448   -2.498030   -0.000381 
C       -1.743734   -2.154648   -1.186181 
C       -1.153088   -1.190584    2.069118 
C       -1.743718   -2.155065    1.185590 
C       -1.339898    1.249715    2.114824 
C       -2.227001    1.985220    1.221647 
C       -1.964341   -0.060401    2.376297 
C       -3.488185    1.313335    1.210547 
C       -3.325127    0.023519    1.961955 
C       -3.488185    1.313668   -1.210229 
C       -3.325101    0.024108   -1.961944 
C       -4.194619    1.028025    0.000131 
C       -3.084569   -2.065683   -0.753878 
C       -3.084555   -2.065911    0.753308 
C       -3.942763   -0.992489    1.175414 
C       -3.942767   -0.992115   -1.175651 
C       -4.575154   -0.387305   -0.000083 
