50
0 1
C        3.636139    1.123317   -0.364853 
C        3.508433    0.360727    0.796929 
C        3.186223   -1.036937    0.433869 
C        3.209862    0.300505   -1.523004 
C        3.084245   -1.056725   -1.021678 
C        2.120995    0.918099   -2.159362 
C        2.703726    2.272976   -0.282605 
C        1.886421    2.224830   -1.472807 
C        2.621865    1.094414    1.725874 
C        2.090313    2.283697    0.993729 
C        1.781310    0.377162    2.505567 
C        2.288698   -1.782951    1.231969 
C        1.685811   -1.112685    2.373974 
C        1.472295   -2.771781    0.584771 
C        2.121437   -1.857424   -1.630295 
C        1.501006   -2.855306   -0.831107 
C        0.981813    0.144033   -2.628483 
C        1.087344   -1.249210   -2.498544 
C       -0.359492    0.764705   -2.655348 
C        0.617957    2.715592   -1.367951 
C       -0.505810    2.107647   -2.123049 
C        0.715664    2.680929    1.127613 
C        0.108716    3.152625   -0.066811 
C        0.423594    0.888671    2.817191 
C       -0.139107    2.008765    2.118551 
C        0.412182   -1.468373    2.798279 
C       -0.367657   -0.232878    3.115212 
C        0.072976   -3.042267    0.998082 
C       -0.464605   -2.362544    2.068899 
C        0.115511   -3.059065   -1.337290 
C       -0.118819   -2.085974   -2.357881 
C       -0.747300   -3.213784   -0.221942 
C       -1.508375   -0.041142   -2.606177 
C       -1.383125   -1.500291   -2.422642 
C       -2.725678    0.375115   -1.873163 
C       -1.686534    2.536112   -1.518175 
C       -1.325262    3.176330   -0.196648 
C       -2.795627    1.638470   -1.274310 
C       -1.548284    1.959630    1.920364 
C       -2.131881    2.638826    0.780335 
C       -3.124561    1.712553    0.129561 
C       -1.701060   -0.395483    2.633733 
C       -1.800390   -1.724063    1.981791 
C       -2.313661    0.723553    2.092211 
C       -3.225794    0.558758    0.934237 
C       -2.029642   -2.638207   -0.294687 
C       -2.368125   -1.928337   -1.480379 
C       -3.187374   -0.745583   -1.109117 
C       -2.569433   -1.871445    0.852352 
C       -3.306943   -0.705591    0.303212 
