50
0 1
C       -4.293899   -0.181421   -0.439644 
C       -3.737883   -1.425231    0.018967 
C       -3.304485   -1.288290    1.371453 
C       -4.028697    0.820334    0.614441 
C       -3.383670    0.156867    1.709220 
C       -3.311392    1.890670    0.035183 
C       -3.505919    0.223794   -1.610649 
C       -3.034643    1.539940   -1.417319 
C       -2.739151   -1.880094   -0.963860 
C       -2.513279   -0.786527   -1.933343 
C       -1.645177   -2.577324   -0.505838 
C       -2.016923   -1.755717    1.779011 
C       -1.297516   -2.582647    0.920149 
C       -2.093848    0.559921    2.205224 
C       -1.270452   -0.634674    2.379782 
C       -2.087057    2.367795    0.589544 
C       -1.447117    1.729578    1.704716 
C       -1.694749    1.879457   -1.712321 
C       -1.232282    2.682946   -0.557268 
C       -1.186076   -0.432527   -2.310508 
C       -0.761286    0.957415   -2.259701 
C       -0.387592   -2.502655   -1.240653 
C       -0.144854   -1.445939   -2.139863 
C        0.143543   -2.647960    1.026164 
C        0.662930   -2.907841   -0.309266 
C        0.143749   -0.596763    2.386542 
C        0.860420   -1.768850    1.876631 
C       -0.001310    1.827837    1.843196 
C        0.784664    0.703174    2.343505 
C        0.084704    2.909475   -0.369721 
C        0.661765    2.718737    0.953379 
C        0.668997    1.306354   -2.185082 
C        1.071720    2.431474   -1.362346 
C        1.235460   -1.094919   -2.350685 
C        1.652744    0.330745   -2.375493 
C        1.997344   -2.674717   -0.612759 
C        2.269126   -1.844025   -1.777755 
C        2.271707   -1.686794    1.640170 
C        2.847048   -2.234247    0.449461 
C        2.220205    0.733976    2.208351 
C        2.940889   -0.449963    1.934236 
C        2.085672    2.683305    0.740477 
C        2.326319    2.492747   -0.750710 
C        2.864272    1.790351    1.422296 
C        3.000244    0.414785   -1.788807 
C        3.400243   -0.930754   -1.420166 
C        3.825657   -1.232569   -0.121296 
C        3.966541   -0.185157    0.834284 
C        3.321629    1.464812   -0.904609 
C        3.811664    1.131117    0.433281 
