50
0 1
C        3.592671    0.761563   -0.820641 
C        2.876404    1.968166   -0.790686 
C        2.541573    2.255637    0.648060 
C        3.598133    0.188103    0.589073 
C        2.867097    1.078163    1.432263 
C        3.259022   -1.195565    0.494237 
C        3.160932   -0.239495   -1.693521 
C        3.033006   -1.521826   -0.903744 
C        1.967689   -0.081547   -2.465210 
C        1.696049    2.156440   -1.564111 
C        1.186910    1.115642   -2.406628 
C        1.279541    2.844515    0.691469 
C        0.760990    2.920418   -0.702048 
C        0.380951    2.462957    1.719692 
C        1.879804    0.562367    2.346358 
C        0.674640    1.336727    2.538343 
C        2.353999   -1.723015    1.426478 
C        1.769490   -0.853515    2.434283 
C        1.330285   -2.681932    0.992208 
C        1.885265   -2.194793   -1.327879 
C        1.287940   -1.384155   -2.425581 
C        1.023467   -2.857039   -0.369504 
C       -0.047547   -1.466076   -2.683707 
C       -0.270013    1.013415   -2.604454 
C       -0.859785   -0.243790   -2.832820 
C       -0.572558    2.891627   -0.928890 
C       -1.126737    2.013196   -1.994506 
C       -1.066245    2.542423    1.472603 
C       -1.530230    2.882096    0.203949 
C       -0.623830    0.695891    2.862102 
C       -1.696633    1.454573    2.215739 
C        0.496725   -1.453836    2.794122 
C        0.239777   -2.562739    1.950714 
C       -0.721212   -0.674653    2.949435 
C       -1.160846   -2.547889    1.552368 
C       -1.796109   -1.394321    2.239985 
C       -0.371832   -3.005000   -0.743830 
C       -0.823887   -2.441544   -1.939495 
C       -1.473183   -2.839764    0.249829 
C       -2.213984   -0.576422   -2.353649 
C       -2.181633   -1.878333   -1.758378 
C       -2.576124   -2.111754   -0.413447 
C       -2.454896    1.737564   -1.662177 
C       -2.734264    2.268980   -0.278126 
C       -3.004974    0.399784   -1.729721 
C       -2.806394    0.786412    1.690413 
C       -2.805124   -0.687494    1.627487 
C       -3.262398   -1.083171    0.269360 
C       -3.368858    1.270744    0.451816 
C       -3.593065    0.092268   -0.449632 
