50
0 1
C       -3.166734   -2.290680   -0.204379 
C       -3.663011   -0.960909    0.169950 
C       -3.451941   -0.087806   -0.975982 
C       -2.400009   -2.140790   -1.379712 
C       -2.469722   -0.755244   -1.856995 
C       -1.092572   -2.752494   -1.197121 
C       -2.227354   -2.717634    0.862701 
C       -1.063735   -3.230778    0.179136 
C       -3.051492   -0.606260    1.405123 
C       -2.041866   -1.643086    1.759659 
C       -2.739188    0.741614    1.635349 
C       -3.331913    1.269677   -0.715211 
C       -3.144772    1.688961    0.667520 
C       -2.374097    1.999769   -1.509674 
C       -1.291439   -0.100134   -2.269558 
C       -1.318508    1.335395   -2.169801 
C        0.065724   -2.164700   -1.769127 
C        0.033128   -0.773710   -2.255017 
C        1.288656   -2.695845   -1.246377 
C        0.138300   -3.174577    0.881845 
C        1.300899   -3.226884    0.095996 
C       -0.708083   -1.246262    2.198197 
C        0.328653   -2.132840    1.917224 
C       -1.406776    1.122375    2.182005 
C       -0.374796    0.188182    2.370574 
C       -2.150972    2.797903    0.673628 
C       -1.768851    3.060144   -0.637991 
C       -1.140990    2.468645    1.672624 
C       -0.072866    2.096714   -1.950624 
C       -0.374505    3.145280   -0.975645 
C        1.234001    0.005876   -2.240682 
C        1.183061    1.476820   -2.010807 
C        2.501493   -1.967676   -1.431341 
C        2.486822   -0.649292   -1.910585 
C        2.382063   -2.536355    0.855006 
C        1.746853   -1.711074    1.831410 
C        3.264955   -1.994850   -0.103710 
C        1.028140    0.630837    2.248984 
C        2.114324   -0.336042    1.968682 
C        0.161849    2.837594    1.427455 
C        0.527611    3.348774    0.078798 
C        1.249395    1.983544    1.894503 
C        2.223018    2.138317   -1.254868 
C        1.861982    2.981423   -0.169484 
C        2.408334    2.350107    1.092535 
C        3.522894    0.074822   -1.143099 
C        3.763242   -0.731765    0.125661 
C        3.277904    0.073536    1.228770 
C        3.374846    1.372213   -0.787187 
C        3.358046    1.439161    0.741645 
