50
0 1
C        3.996846   -0.401453   -0.466371 
C        3.236190   -1.070153   -1.561559 
C        2.619499   -2.181474   -1.024968 
C        3.573242   -1.063429    0.818087 
C        2.826207   -2.180473    0.483756 
C        2.961855   -0.048318    1.670386 
C        3.568033    0.920572   -0.410871 
C        3.093751    1.226704    0.950010 
C        2.379790   -0.048157   -2.184270 
C        2.629639    1.192786   -1.518410 
C        1.044494   -0.388999   -2.612814 
C        1.223059   -2.463827   -1.258975 
C        0.473604   -1.683931   -2.173246 
C        1.543822   -2.433899    1.079442 
C        0.626679   -2.846833    0.010917 
C        1.761845   -0.339411    2.380968 
C        1.057345   -1.598748    2.113899 
C        0.950269    0.796241    2.730797 
C        2.143307    2.213106    1.093999 
C        1.207055    2.053749    2.159747 
C        1.598152    2.170508   -1.353815 
C        1.399545    2.771803   -0.074293 
C        0.173067    0.686243   -2.802631 
C        0.450234    1.992965   -2.181318 
C       -1.294534    0.506397   -2.808365 
C       -0.935860   -1.834345   -2.075515 
C       -1.850704   -0.751115   -2.515220 
C       -0.765995   -2.839471    0.187910 
C       -1.545835   -2.520339   -0.973453 
C       -0.355520   -1.687946    2.342635 
C       -1.231161   -2.425082    1.491351 
C       -0.517906    0.699617    2.871285 
C       -1.121339   -0.512730    2.835668 
C       -0.087096    2.677647    1.753353 
C        0.073505    3.118685    0.380856 
C       -1.141372    1.869871    2.157645 
C       -0.794671    2.553605   -1.790064 
C       -1.890110    1.644686   -2.208954 
C       -1.044609    2.957016   -0.452643 
C       -2.306900    1.689269    1.309465 
C       -2.836690    1.545770   -1.137066 
C       -2.266587    2.267833    0.027607 
C       -3.027269   -0.805186   -1.736081 
C       -2.895950   -1.979015   -0.800812 
C       -3.490324    0.320649   -0.961481 
C       -2.573502   -1.842283    1.608511 
C       -2.473157   -0.617948    2.306571 
C       -3.064767    0.462202    1.485133 
C       -3.387140   -1.627294    0.430730 
C       -3.712036   -0.146065    0.402466 
