50
0 1
C       -4.806285    0.952143    0.700012 
C       -4.806430    0.955369   -0.695747 
C       -4.777714   -0.444835   -1.207192 
C       -4.777559   -0.450181    1.205299 
C       -4.752085   -1.338318   -0.002945 
C       -3.562266   -0.623877    1.888224 
C       -3.536925    1.603656    1.168756 
C       -2.827854    0.668935    1.953579 
C       -3.537188    1.608918   -1.161799 
C       -2.823603    2.144114    0.004897 
C       -3.562286   -0.615434   -1.890956 
C       -2.828027    0.677724   -1.950294 
C       -3.532930   -2.030835   -0.004525 
C       -2.781771   -1.721602    1.247968 
C       -2.781799   -1.716001   -1.255665 
C       -1.422306   -1.657664    1.227015 
C       -1.402504    0.672204    1.935758 
C       -0.689520   -0.598313    1.963019 
C       -1.432448    2.139145    0.004774 
C       -0.714824    1.677702    1.194753 
C       -1.402313    0.680832   -1.932614 
C       -0.714623    1.683725   -1.188005 
C       -1.422312   -1.652191   -1.234509 
C       -0.680827   -2.025859   -0.004590 
C       -0.689671   -0.589205   -1.965405 
C        0.680903   -2.026005   -0.004565 
C        0.689600   -0.598519    1.963019 
C        1.422330   -1.657676    1.227030 
C        0.714794    1.677556    1.194889 
C        1.402571    0.672296    1.935606 
C        0.714604    1.683600   -1.188006 
C        1.432527    2.139234    0.004765 
C        0.689808   -0.589327   -1.965338 
C        1.422378   -1.652151   -1.234466 
C        1.402462    0.680921   -1.932398 
C        2.781840   -1.715985   -1.255612 
C        2.781774   -1.721601    1.247926 
C        3.532911   -2.030853   -0.004521 
C        2.827918    0.668854    1.953310 
C        3.562240   -0.623788    1.888017 
C        2.823492    2.143949    0.004872 
C        3.536839    1.603513    1.168617 
C        2.828101    0.677664   -1.949969 
C        3.562281   -0.615261   -1.890683 
C        3.537049    1.608760   -1.161617 
C        4.752166   -1.338184   -0.002961 
C        4.777550   -0.450005    1.205182 
C        4.806076    0.952156    0.699836 
C        4.777672   -0.444655   -1.207094 
C        4.806185    0.955360   -0.695646 
