50
0 1
C       -3.871961   -0.332210    0.589974 
C       -3.482834    0.988770    0.879374 
C       -3.223804    1.667004   -0.375223 
C       -3.590934   -0.628314   -0.852413 
C       -3.251173    0.584718   -1.467644 
C       -2.649995   -1.699597   -0.908111 
C       -3.052121   -1.258829    1.372036 
C       -2.400400   -2.152329    0.501908 
C       -2.399387    0.972889    1.887065 
C       -2.241155   -0.447381    2.274303 
C       -1.273057    1.792023    1.767353 
C       -2.080144    2.404296   -0.536165 
C       -1.160966    2.686411    0.577242 
C       -2.053717    0.712639   -2.218509 
C       -1.469023    2.010183   -1.846690 
C       -1.545642   -1.638496   -1.798679 
C       -1.182519   -0.389754   -2.443529 
C       -0.502621   -2.607039   -1.570146 
C       -1.124512   -2.698824    0.862379 
C       -0.303588   -3.192891   -0.198427 
C       -0.995714   -0.925971    2.602651 
C       -0.471745   -2.157684    1.996256 
C       -0.020227    1.357072    2.409188 
C        0.108014    0.001074    2.794843 
C        1.207377    2.040861    2.110184 
C        0.047850    3.258150    0.230239 
C        1.231026    3.051402    1.056084 
C       -0.177228    2.307018   -2.103725 
C        0.537374    3.165028   -1.169600 
C        0.239739   -0.090926   -2.704294 
C        0.740654    1.228956   -2.523485 
C        0.743197   -2.458538   -2.170575 
C        1.198528   -1.117393   -2.539047 
C        1.075888   -3.378647   -0.002479 
C        1.770322   -3.032784   -1.274322 
C        0.979385   -2.085086    2.056075 
C        1.335723   -0.758711    2.584336 
C        1.757835   -2.674339    1.066698 
C        2.420442    1.315630    2.014193 
C        2.463078   -0.108153    2.114794 
C        2.363604    2.815448    0.210052 
C        1.890783    2.753569   -1.152841 
C        2.019157    1.493803   -1.905487 
C        3.103992    1.697098    0.723957 
C        2.452153   -0.867469   -1.849739 
C        2.727310   -2.056688   -1.015444 
C        2.851890   -1.874692    0.445767 
C        3.143333   -0.628508    0.909229 
C        2.798266    0.417563   -1.391257 
C        3.317546    0.539646   -0.018349 
