50
0 1
C        3.706886   -0.718083   -0.234186 
C        3.226660   -1.504884    0.796424 
C        2.785723   -0.610365    1.931044 
C        3.706886    0.718082    0.234186 
C        3.055880    0.754486    1.541857 
C        3.226660    1.504884   -0.796423 
C        3.055880   -0.754487   -1.541857 
C        2.785723    0.610365   -1.931044 
C        2.037245   -1.679591   -1.756364 
C        2.178943   -2.471543    0.580390 
C        1.682245   -2.648588   -0.710979 
C        1.525922   -1.030613    2.371566 
C        1.208874   -2.308834    1.680553 
C        0.467451   -0.083458    2.633663 
C        2.037246    1.679590    1.756363 
C        0.790518    1.272393    2.409504 
C        2.178944    2.471542   -0.580389 
C        1.682246    2.648587    0.710979 
C        1.525923    1.030613   -2.371567 
C        1.208874    2.308834   -1.680553 
C        0.790517   -1.272394   -2.409505 
C        0.467451    0.083458   -2.633664 
C        0.282664   -3.016765   -0.895442 
C       -0.247071   -2.222312   -2.008432 
C       -0.082567   -2.695450    1.515859 
C       -0.524547   -3.246598    0.219112 
C       -0.932338   -0.515840    2.516093 
C       -1.197815   -1.869150    2.053307 
C       -1.934588    0.439032    2.275351 
C       -0.247070    2.222312    2.008433 
C        0.282665    3.016764    0.895442 
C       -1.580591    1.848329    2.038144 
C       -0.082567    2.695450   -1.515859 
C       -0.524546    3.246598   -0.219112 
C       -0.932339    0.515840   -2.516093 
C       -1.197816    1.869150   -2.053306 
C       -1.580592   -1.848329   -2.038144 
C       -1.934589   -0.439031   -2.275351 
C       -1.933278   -2.988894    0.114984 
C       -2.344621   -2.174447    1.318289 
C       -2.460358   -2.371210   -1.012506 
C       -3.106768    0.138243    1.415847 
C       -3.106768   -0.138243   -1.415846 
C       -3.251727   -1.144176    0.856306 
C       -3.352744   -1.256391   -0.573903 
C       -2.460357    2.371211    1.012506 
C       -1.933277    2.988895   -0.114984 
C       -2.344621    2.174447   -1.318289 
C       -3.352743    1.256391    0.573904 
C       -3.251727    1.144177   -0.856305 
