50
0 1
C        3.954443    1.036373   -0.136257 
C        3.790902   -0.176002   -0.979010 
C        3.763476   -1.269228   -0.134269 
C        3.575197    0.633024    1.275949 
C        3.503377   -0.761540    1.304073 
C        2.425726    1.388123    1.667404 
C        3.022041    1.970877   -0.558471 
C        2.245025    2.416097    0.612092 
C        2.636397    0.076664   -1.884999 
C        2.227067    1.415403   -1.684749 
C        1.623500   -0.942139   -2.106631 
C        2.813578   -2.293734   -0.368325 
C        1.821427   -2.171333   -1.436877 
C        2.319908   -1.413308    1.774616 
C        2.076616   -2.512596    0.849136 
C        1.244346    0.767889    2.196141 
C        1.179593   -0.678278    2.231629 
C       -0.005907    1.539283    2.147081 
C        1.036817    2.948809    0.367965 
C       -0.076775    2.727828    1.313454 
C        0.874873    1.859140   -1.863320 
C        0.454276    2.908470   -0.996007 
C        0.249043   -0.506148   -2.426479 
C       -0.112843    0.920800   -2.370365 
C       -0.800380   -1.438351   -2.294465 
C        0.650969   -2.877027   -0.927578 
C        0.747582   -2.936097    0.523899 
C       -0.589591   -2.658087   -1.499560 
C       -0.133563   -1.346781    2.190081 
C       -0.338434   -2.539102    1.333390 
C       -1.221896    0.892330    2.378046 
C       -1.263702   -0.573966    2.477812 
C       -2.491504    1.345006    1.760400 
C       -1.246301    3.112431    0.659557 
C       -0.921200    3.195307   -0.823225 
C       -2.474424    2.370421    0.792260 
C       -1.486190    1.274606   -2.240276 
C       -1.872236    2.445262   -1.499982 
C       -2.954457    2.054530   -0.531848 
C       -2.206980   -1.054037   -2.083481 
C       -2.534529    0.275818   -1.988474 
C       -3.407666    0.764594   -0.876528 
C       -1.718118   -2.891413   -0.672894 
C       -1.621166   -2.804352    0.754429 
C       -2.817485   -1.982356   -1.128502 
C       -2.588916   -0.993785    2.051077 
C       -3.297312    0.207056    1.493528 
C       -3.757071   -0.119524    0.178329 
C       -2.780710   -2.061449    1.203971 
C       -3.516824   -1.545510   -0.023747 
