50
0 1
C       -4.075239   -0.877627   -0.558100 
C       -4.185881    0.362332    0.042366 
C       -3.444106    1.365488   -0.774027 
C       -3.187774   -0.725401   -1.755277 
C       -2.807805    0.704594   -1.851767 
C       -2.146194   -1.623470   -1.627649 
C       -3.352251   -1.790639    0.381218 
C       -2.262428   -2.334565   -0.303248 
C       -3.524335    0.343345    1.388410 
C       -3.070453   -1.024838    1.608152 
C       -2.649533    2.138515    0.157111 
C       -2.613290    1.414078    1.465969 
C       -1.503576    2.690202   -0.323358 
C       -1.453244    1.054215   -2.218700 
C       -0.991603    2.277245   -1.648387 
C       -0.824296   -1.342602   -2.152705 
C       -0.454956    0.048251   -2.515911 
C        0.151248   -2.240530   -1.766265 
C       -1.046622   -2.678775    0.385605 
C        0.119416   -2.863448   -0.403169 
C       -1.825026   -1.182688    2.190939 
C       -0.861144   -2.171360    1.685164 
C       -1.333327    1.269584    2.123985 
C       -1.043655   -0.022822    2.606420 
C       -0.332497    2.910498    0.548456 
C       -0.202346    2.137494    1.754759 
C        0.381946    2.590229   -1.662753 
C        0.770130    3.095798   -0.302164 
C        0.948943    0.389861   -2.553282 
C        1.368938    1.682989   -2.093335 
C        1.532204   -1.982622   -2.049707 
C        1.966802   -0.639337   -2.425786 
C        1.432680   -2.792152    0.137932 
C        2.332445   -2.466900   -0.975536 
C        0.471148   -1.796733    2.132452 
C        0.334813   -0.476448    2.748318 
C        1.644720   -2.158249    1.424189 
C        1.116907    1.769476    2.106792 
C        1.372525    0.431153    2.680917 
C        2.072805    2.607813   -0.012831 
C        2.546466    1.852555   -1.197430 
C        2.277447    2.092676    1.276259 
C        3.192250   -0.407847   -1.774105 
C        3.432601   -1.558981   -0.809112 
C        3.456021    0.826547   -1.048957 
C        2.796986   -1.294647    1.580605 
C        2.643221   -0.053728    2.233677 
C        3.262683    1.035845    1.404463 
C        3.699797   -1.043502    0.432840 
C        3.866439    0.459130    0.306562 
