50
0 1
C       -3.315152   -1.182506   -0.980966 
C       -2.771527   -2.222955   -0.292520 
C       -2.734308   -1.868748    1.177049 
C       -3.799692   -0.163361    0.033726 
C       -3.187249   -0.513009    1.316000 
C       -3.612430    1.079417   -0.522925 
C       -2.525458   -0.448826   -1.988267 
C       -2.816691    0.907033   -1.821954 
C       -1.174050   -0.884303   -2.292739 
C       -1.469459   -2.757073   -0.646876 
C       -0.751718   -2.184997   -1.753312 
C       -1.499928   -2.318246    1.672984 
C       -0.790353   -3.044642    0.588929 
C       -0.738321   -1.435575    2.463252 
C       -2.334126    0.436230    1.978409 
C       -1.134512   -0.063922    2.579780 
C       -2.947765    2.085271    0.230907 
C       -2.265572    1.773410    1.434236 
C       -1.783333    1.910013   -1.825948 
C       -1.969426    2.738188   -0.683070 
C       -0.191362    0.131281   -2.565958 
C       -0.450915    1.545946   -2.244350 
C        1.191171   -0.262692   -2.620463 
C        0.625254   -2.522476   -1.793927 
C        1.558789   -1.588186   -2.365202 
C        0.603829   -3.143892    0.603789 
C        1.265960   -3.102993   -0.639080 
C        0.732558   -1.513217    2.439531 
C        1.398143   -2.365794    1.591025 
C        0.106307    0.740775    2.671314 
C        1.224617   -0.145782    2.656040 
C       -0.978451    2.513678    1.417890 
C       -0.855590    3.127237    0.107905 
C        0.184292    2.048486    2.082669 
C        0.594017    2.355115   -1.756300 
C        0.394954    3.164849   -0.535786 
C        2.286867    0.613099   -2.124930 
C        1.993445    1.896896   -1.728718 
C        2.807637   -1.587174   -1.526632 
C        2.591075   -2.432997   -0.446461 
C        2.644064   -1.932311    0.912180 
C        3.209504   -0.221861   -1.328367 
C        2.462959    0.245505    2.093000 
C        3.141431   -0.655222    1.119145 
C        3.553326    0.177989   -0.024768 
C        1.466414    2.462294    1.575176 
C        1.539425    3.079428    0.275437 
C        2.616277    2.401381   -0.514499 
C        2.600192    1.574580    1.668811 
C        3.304882    1.554661    0.334833 
