50
0 1
C       -3.361071   -2.063349   -0.625744 
C       -3.806613   -0.642088   -0.690228 
C       -3.772495   -0.125165    0.607796 
C       -2.870976   -2.297827    0.768638 
C       -3.104801   -1.148141    1.502087 
C       -1.488018   -2.760590    0.667934 
C       -2.253751   -2.189664   -1.472551 
C       -1.149566   -2.785288   -0.727808 
C       -2.997767    0.015865   -1.720222 
C       -1.965052   -0.917657   -2.172100 
C       -2.630451    1.336490   -1.518700 
C       -3.160504    1.144682    0.884251 
C       -2.844853    1.957926   -0.196349 
C       -2.038940   -0.455367    2.211768 
C       -2.136212    0.951209    1.949522 
C       -0.491310   -2.312142    1.597359 
C       -0.759946   -1.086331    2.364648 
C        0.831823   -2.589006    1.218544 
C        0.170855   -2.566060   -1.159556 
C        1.147129   -2.884873   -0.178133 
C       -0.635587   -0.514602   -2.379378 
C        0.446227   -1.486088   -2.111756 
C       -1.342637    1.814915   -2.020730 
C       -0.314955    0.911430   -2.360935 
C       -1.803732    2.941501   -0.031304 
C       -1.028212    3.002241   -1.226380 
C       -0.993786    1.802883    2.042575 
C       -0.895578    2.921558    1.123695 
C        0.329551   -0.236542    2.642445 
C        0.219854    1.203000    2.473492 
C        1.982894   -1.853379    1.763706 
C        1.715760   -0.630867    2.375497 
C        2.513823   -2.567153   -0.429704 
C        3.080148   -1.945529    0.829875 
C        1.773777   -1.075137   -2.240199 
C        2.838322   -1.762946   -1.520604 
C        1.092236    1.320568   -2.158945 
C        2.091886    0.373757   -2.218609 
C        0.326234    3.291631   -0.869560 
C        0.367978    3.320656    0.650223 
C        1.359809    2.500757   -1.316845 
C        1.526834    1.686030    2.027628 
C        2.466426    0.558618    1.979013 
C        1.577628    2.665850    1.045037 
C        2.334349    2.354848   -0.183770 
C        3.821970   -0.820717    0.465828 
C        3.798547   -0.733295   -1.035105 
C        3.325647    0.517399   -1.403616 
C        3.439031    0.480630    0.977926 
C        3.268072    1.375360   -0.200655 
