50
0 1
C        2.666516   -2.702281   -0.142941 
C        1.507199   -3.200567    0.455553 
C        1.235723   -2.430185    1.688813 
C        3.149534   -1.559781    0.646142 
C        2.291093   -1.387014    1.755669 
C        3.397271   -0.458809   -0.271554 
C        2.317968   -2.182798   -1.494065 
C        2.819746   -0.842187   -1.591032 
C        0.456450   -3.241224   -0.573032 
C        0.953087   -2.473169   -1.751682 
C       -0.827096   -3.091713   -0.182280 
C       -0.072641   -2.150910    2.048172 
C       -1.154112   -2.716671    1.232664 
C       -0.370505   -0.868523    2.650673 
C        1.969458   -0.059588    2.212378 
C        0.675090    0.165228    2.720720 
C        3.220750    0.819352    0.194402 
C        2.620525    1.043088    1.538802 
C        2.712499    1.875087   -0.696027 
C        2.035590    0.087189   -2.266961 
C        2.049516    1.504004   -1.868655 
C        0.091752   -1.500736   -2.362853 
C        0.695092   -0.264584   -2.701482 
C       -1.812584   -2.429122   -1.053723 
C       -1.353470   -1.534272   -2.073197 
C       -2.416809   -2.168644    1.227207 
C       -2.914163   -2.105504   -0.208845 
C       -1.622658   -0.224989    2.496655 
C       -2.709325   -0.858406    1.821651 
C        0.008730    1.451667    2.591120 
C       -1.396595    1.220636    2.304000 
C        2.026191    2.312894    1.539197 
C        2.116606    2.886105    0.141694 
C        0.683606    2.533950    2.012597 
C        0.896848    3.452632   -0.176656 
C       -0.028185    3.297378    1.013102 
C        0.742777    2.067023   -2.182388 
C       -0.083887    0.979630   -2.719688 
C        0.161950    3.024652   -1.340771 
C       -2.120916   -0.342826   -2.258905 
C       -1.436425    0.944529   -2.490294 
C       -3.615855   -0.911132   -0.366651 
C       -3.476922   -0.109343    0.922292 
C       -3.256299   -0.065510   -1.430958 
C       -2.067676    1.936103    1.284170 
C       -1.297650    2.921060    0.557993 
C       -1.233807    2.854084   -0.932061 
C       -2.036898    1.954232   -1.599089 
C       -3.105244    1.245542    0.547034 
C       -3.091840    1.304420   -0.866910 
