50
0 1
C       -3.945712    0.049738   -0.027864 
C       -3.434694   -0.833340    1.047581 
C       -2.727954   -1.931464    0.451624 
C       -3.429186   -0.408819   -1.244092 
C       -2.790552   -1.710547   -1.017949 
C       -2.651061    0.663636   -1.896523 
C       -3.392601    1.402203    0.225331 
C       -2.720159    1.798544   -1.008081 
C       -2.777739   -0.003994    1.998153 
C       -2.673573    1.390803    1.427919 
C       -1.679939   -0.533658    2.665674 
C       -1.519822   -2.413035    1.054669 
C       -1.042550   -1.746361    2.210781 
C       -0.514104   -2.966725    0.176521 
C       -1.709821   -2.031280   -1.793553 
C       -0.698868   -2.871234   -1.205905 
C       -1.440873    0.338438   -2.600456 
C       -1.002124   -1.014078   -2.628201 
C       -0.403988    1.335233   -2.638916 
C       -1.602808    2.641163   -0.883642 
C       -0.593463    2.528349   -1.852983 
C       -1.420578    2.131213    1.543377 
C       -0.951477    2.825052    0.434814 
C       -0.634273    0.386898    3.091528 
C       -0.421435    1.610813    2.468254 
C        0.421314   -1.604127    2.472644 
C        0.634028   -0.378529    3.092531 
C        0.951454   -2.823803    0.442368 
C        1.420389   -2.126972    1.549165 
C        0.593562   -2.533438   -1.846269 
C        0.404202   -1.342429   -2.635341 
C        1.602783   -2.643515   -0.876541 
C        1.002322    1.006856   -2.630737 
C        1.441113   -0.345552   -2.599470 
C        0.698846    2.867915   -1.213413 
C        0.514053    2.967155    0.168688 
C        1.709858    2.026385   -1.798810 
C        1.042389    1.752267    2.206057 
C        1.679728    0.540942    2.664184 
C        1.519871    2.415853    1.048194 
C        2.673367   -1.387017    1.431886 
C        2.777685    0.009466    1.998394 
C        2.720284   -1.801326   -1.003342 
C        2.651289   -0.668749   -1.894740 
C        3.392467   -1.401549    0.229271 
C        2.790618    1.707948   -1.022389 
C        2.727857    1.932722    0.446578 
C        3.434658    0.836093    1.045518 
C        3.429349    0.405539   -1.245055 
C        3.945865   -0.049682   -0.027430 
