50
0 1
C        4.676538   -0.446296   -0.618897 
C        4.598295    0.930549   -0.526172 
C        4.244048    1.297574    0.872421 
C        4.282727   -1.057797    0.717217 
C        3.948149   -0.001189    1.595899 
C        3.293793   -2.036480    0.448620 
C        3.665581   -0.931401   -1.616301 
C        2.976963   -1.989604   -1.043521 
C        3.439280    1.380777   -1.382692 
C        2.873153    0.219676   -2.071193 
C        3.056288    2.021665    0.844752 
C        2.572522    2.129183   -0.564786 
C        2.604250    0.088789    2.123166 
C        2.080514    1.431293    1.790808 
C        2.050225   -2.047336    1.118326 
C        1.662629   -0.969186    1.984931 
C        1.557457   -2.110395   -1.189616 
C        1.017477   -2.455998    0.133394 
C        1.469610    0.108286   -2.192180 
C        0.807049   -1.169623   -1.926699 
C        1.176122    2.079486   -0.780678 
C        0.634052    1.230889   -1.788965 
C        0.739982    1.647526    1.613100 
C        0.312600    2.325373    0.372929 
C        0.236328   -0.665326    2.085973 
C       -0.236357    0.665747    2.085908 
C       -0.312706   -2.325309    0.373230 
C       -0.739896   -1.647170    1.613485 
C       -0.634022   -1.231417   -1.788862 
C       -1.176111   -2.079637   -0.780189 
C       -0.807129    1.169086   -1.926830 
C       -1.469614   -0.108750   -2.192185 
C       -1.017471    2.456171    0.132900 
C       -1.557530    2.110220   -1.190120 
C       -1.662545    0.969664    1.984804 
C       -2.050283    2.047655    1.117899 
C       -2.080438   -1.430908    1.791118 
C       -2.604113   -0.088376    2.123205 
C       -2.572582   -2.129207   -0.564405 
C       -3.056255   -2.021510    0.845171 
C       -2.873172   -0.220055   -2.071186 
C       -3.439343   -1.381189   -1.382419 
C       -2.976963    1.989451   -1.043916 
C       -3.293757    2.036678    0.448214 
C       -3.665536    0.931024   -1.616447 
C       -3.948172    0.001523    1.595949 
C       -4.244077   -1.297441    0.872734 
C       -4.598316   -0.930727   -0.525968 
C       -4.282735    1.057937    0.717027 
C       -4.676508    0.446106   -0.618955 
