50
0 1
C        4.335482    0.000016   -0.452868 
C        3.758206    0.000026   -1.703328 
C        2.863409   -1.192777   -1.840281 
C        3.825784   -1.209575    0.294117 
C        2.878320   -1.910498   -0.590728 
C        3.351679   -0.759169    1.513698 
C        3.825737    1.209596    0.294121 
C        3.351678    0.759138    1.513761 
C        2.863418    1.192808   -1.840322 
C        2.878362    1.910569   -0.590666 
C        1.627792   -0.742697   -2.365677 
C        1.627864    0.742751   -2.365655 
C        0.431115   -1.410316   -2.034000 
C        1.637856   -2.378394   -0.082186 
C        0.502978   -2.391970   -0.989143 
C        2.071441   -1.171984    2.030727 
C        1.319863   -2.144132    1.334351 
C        2.071513    1.172022    2.030720 
C        1.362267   -0.000078    2.537319 
C        1.637900    2.378383   -0.082136 
C        1.319893    2.143995    1.334349 
C        0.431093    1.410364   -2.033880 
C        0.502954    2.391909   -0.989098 
C       -0.825231   -0.706632   -2.330499 
C       -0.825218    0.706683   -2.330474 
C       -2.044738   -1.442630   -2.027663 
C       -0.748875   -2.898811   -0.490089 
C       -1.990723   -2.523111   -1.149307 
C       -0.037506   -2.264599    1.754253 
C       -0.975672   -2.930311    0.891861 
C       -0.046598   -0.000097    2.687755 
C       -0.742777   -1.210825    2.417309 
C       -0.037556    2.264452    1.754344 
C       -0.742778    1.210764    2.417297 
C       -0.748875    2.898828   -0.489954 
C       -0.975666    2.930290    0.891943 
C       -2.044706    1.442738   -2.027584 
C       -1.990685    2.523145   -1.149229 
C       -3.265040   -0.679501   -1.719333 
C       -3.265003    0.679626   -1.719295 
C       -3.032401   -2.302039   -0.058492 
C       -2.335252   -2.379280    1.180951 
C       -2.168816   -1.225501    1.983202 
C       -3.744382   -1.157090   -0.357404 
C       -2.168815    1.225428    1.983211 
C       -2.335229    2.379288    1.181026 
C       -3.032364    2.302046   -0.058413 
C       -3.744338    1.157163   -0.357354 
C       -2.869462   -0.000014    1.674080 
C       -3.737898    0.000005    0.524668 
