50
0 1
C        3.481484    1.182080    0.072813 
C        3.593687    0.023962    0.770284 
C        3.471418   -1.135218   -0.211496 
C        3.240251    0.827006   -1.396030 
C        2.990770   -0.584587   -1.479549 
C        2.324887    1.744223   -1.878473 
C        2.488118    2.197130    0.439474 
C        1.971000    2.695689   -0.767253 
C        1.591980    1.958586    1.568136 
C        2.705366   -0.277788    1.905419 
C        1.680043    0.662893    2.277295 
C        2.793327   -2.134408    0.423999 
C        2.394068   -1.653588    1.799489 
C        1.629678   -2.748136   -0.178887 
C        1.767588   -1.061630   -2.033504 
C        1.182271   -2.293374   -1.456557 
C        1.100260    1.309720   -2.473308 
C        0.858971   -0.073042   -2.618710 
C        0.587804    3.015644   -0.930351 
C        0.027022    2.226373   -1.993701 
C        0.352771    2.612929    1.516341 
C       -0.152843    3.222973    0.254590 
C       -0.834557    2.093598    2.210455 
C        0.478865    0.096620    2.783520 
C       -0.795796    0.813642    2.742128 
C        1.097428   -2.172438    2.058052 
C        0.679183   -2.988788    0.898747 
C        0.169140   -1.317942    2.644152 
C       -0.672178   -3.124128    0.610460 
C       -0.168167   -2.628533   -1.767331 
C       -1.039017   -3.139837   -0.765639 
C       -0.533819   -0.419811   -2.804297 
C       -0.968142   -1.714050   -2.585300 
C       -1.340742    1.834565   -1.964469 
C       -1.639923    0.526148   -2.447399 
C       -1.542449    3.078772    0.174766 
C       -2.016675    2.475837    1.462939 
C       -2.168138    2.362440   -0.914341 
C       -3.012003    1.563555    1.167897 
C       -3.183154    1.520690   -0.330542 
C       -1.874099   -0.146160    2.464926 
C       -1.259919   -1.465044    2.341781 
C       -1.685247   -2.351964    1.366102 
C       -2.939731    0.197919    1.631760 
C       -2.374162   -2.465983   -0.889420 
C       -2.348105   -1.654409   -2.003635 
C       -2.714445   -0.250559   -1.905856 
C       -3.361542    0.184410   -0.717560 
C       -2.741809   -1.946933    0.424720 
C       -3.290716   -0.679058    0.503368 
