50
0 1
C        3.824891   -0.389723    0.502029 
C        3.321654   -1.576477   -0.207328 
C        2.437049   -2.264632    0.677327 
C        3.076161   -0.293906    1.787984 
C        2.189801   -1.401617    1.871259 
C        2.589752    1.050683    1.888836 
C        3.565420    0.750123   -0.259335 
C        2.922851    1.747533    0.613362 
C        2.848933   -1.129163   -1.497662 
C        2.895253    0.348267   -1.525447 
C        1.742933   -1.778644   -2.039678 
C        1.363673   -2.958764    0.113925 
C        1.168585   -2.852815   -1.290912 
C        0.034204   -2.960437    0.766461 
C        0.849578   -1.221703    2.343121 
C       -0.222875   -2.116547    1.858203 
C        1.319859    1.237428    2.426281 
C        0.494023    0.092179    2.735931 
C        0.444041    2.314258    1.935256 
C        2.010810    2.582376    0.054935 
C        0.826794    3.035318    0.813977 
C        1.823052    1.082629   -2.016565 
C        1.558111    2.375434   -1.361923 
C        0.635919   -1.008034   -2.631640 
C        0.666526    0.387876   -2.634820 
C       -0.291777   -2.860774   -1.549873 
C       -0.960803   -3.099654   -0.315538 
C       -0.622977   -1.742338   -2.357478 
C       -2.239162   -2.568085   -0.167487 
C       -1.603062   -1.724731    2.063492 
C       -2.609869   -2.133271    1.168325 
C       -0.899656    0.556581    2.687773 
C       -0.943393    1.887303    2.083608 
C       -1.927561   -0.333637    2.504596 
C       -1.939163    2.211117    1.122180 
C       -0.180647    3.406672   -0.136775 
C        0.349389    3.017198   -1.503409 
C       -1.512771    2.975632   -0.027836 
C       -0.632928    1.031687   -2.680928 
C       -0.758168    2.407464   -2.189691 
C       -1.904162    2.490043   -1.367224 
C       -1.862193   -1.071822   -2.129358 
C       -2.729520   -1.587994   -1.131288 
C       -1.837116    0.351257   -2.370557 
C       -2.665353    1.260645   -1.517980 
C       -3.575813   -1.031655    0.985653 
C       -3.088807    0.128922    1.777711 
C       -3.004012    1.258308    0.940288 
C       -3.588450   -0.664749   -0.362572 
C       -3.359029    0.784238   -0.449209 
