50
0 1
C       -4.401343    0.167991   -0.697295 
C       -3.870618   -0.810197   -1.507840 
C       -3.261604   -1.890389   -0.667474 
C       -4.165772   -0.220107    0.741579 
C       -3.445968   -1.501914    0.735194 
C       -3.568682    0.865746    1.369783 
C       -3.632795    1.441243   -0.932501 
C       -3.253495    1.912960    0.316095 
C       -2.747893   -0.232756   -2.314117 
C       -2.582893    1.160553   -1.929815 
C       -1.970207   -2.130815   -1.157633 
C       -1.647929   -1.090724   -2.189495 
C       -0.904357   -2.497072   -0.278870 
C       -2.341036   -1.643203    1.573149 
C       -1.151323   -2.343697    1.098240 
C       -2.375659    0.736177    2.182522 
C       -1.833241   -0.523721    2.392866 
C       -1.911304    2.359688    0.555427 
C       -1.419297    1.781306    1.802241 
C       -1.272939    1.639908   -1.735044 
C       -1.013560    2.451078   -0.543392 
C       -0.326146   -0.573743   -2.246685 
C       -0.132236    0.833050   -2.175057 
C        0.465682   -2.406566   -0.765664 
C        0.759000   -1.474740   -1.869882 
C        1.492007   -2.635602    0.159142 
C       -0.030777   -1.938856    1.945779 
C       -0.383345   -0.672828    2.562730 
C        1.252747   -2.176444    1.545626 
C       -0.034822    1.654402    2.027507 
C        0.548395    0.388178    2.485617 
C        0.321270    2.683241   -0.185544 
C        0.772524    2.446456    1.160684 
C        1.235721    1.326417   -2.016354 
C        1.435082    2.395612   -1.096692 
C        2.053509   -1.033274   -2.098343 
C        2.323246    0.420241   -2.211482 
C        2.854899   -2.303843   -0.133940 
C        3.188577   -1.623953   -1.366715 
C        2.325365   -1.245550    1.891490 
C        1.965323    0.084135    2.226729 
C        3.411629   -1.543425    0.962766 
C        2.188149    2.257706    1.120898 
C        2.627863    2.451857   -0.310064 
C        2.818575    1.126953    1.658607 
C        3.612194    0.658804   -1.601732 
C        4.146091   -0.626430   -1.095424 
C        4.247193   -0.499241    0.404153 
C        3.697876    1.598035   -0.546132 
C        3.936322    0.797354    0.754363 
