50
0 1
C       -4.153953   -0.679497    0.451488 
C       -3.659097    0.473941    1.247506 
C       -3.428275    1.532697    0.385782 
C       -3.984910   -0.302705   -1.003104 
C       -3.553596    1.037829   -1.049024 
C       -3.135733   -1.262207   -1.597665 
C       -3.332303   -1.776818    0.725668 
C       -2.794832   -2.297285   -0.531414 
C       -2.530113    0.007428    2.061850 
C       -2.335938   -1.396140    1.755741 
C       -1.405622    0.855703    2.286312 
C       -2.225413    2.320759    0.478712 
C       -1.292863    2.113434    1.532479 
C       -2.351692    1.418189   -1.716431 
C       -1.726381    2.461616   -0.885095 
C       -1.910187   -0.893946   -2.223603 
C       -1.474653    0.457524   -2.318636 
C       -1.466162   -2.605836   -0.638354 
C       -0.896495   -1.891513   -1.825904 
C       -1.034086   -1.937143    1.720793 
C       -0.599005   -2.697536    0.534962 
C       -0.194385    0.203548    2.633095 
C       -0.020794   -1.198838    2.387039 
C        1.132347    0.836426    2.509502 
C        0.011832    2.666247    1.329515 
C        1.240458    2.050173    1.882924 
C       -0.419092    2.808108   -1.097847 
C        0.356736    3.165087    0.051974 
C       -0.023251    0.726862   -2.392238 
C        0.438347    1.983883   -1.978536 
C        0.443906   -1.700378   -1.963946 
C        0.955432   -0.378530   -2.397740 
C        0.738294   -2.827410    0.275815 
C        1.289523   -2.515963   -1.084497 
C        1.405205   -1.472178    2.183090 
C        2.142944   -0.218245    2.298532 
C        1.781811   -2.409632    1.225470 
C        3.279701    0.008724    1.521183 
C        2.347029    2.252199    0.913435 
C        1.774366    2.846174   -0.240336 
C        1.814267    2.181997   -1.516202 
C        3.336967    1.266844    0.726211 
C        2.318847   -0.122888   -2.234375 
C        2.759977    1.179139   -1.693750 
C        3.694459    0.932702   -0.617781 
C        2.638730   -2.298707   -0.987453 
C        3.002277   -2.216302    0.491913 
C        3.774715   -1.069234    0.678754 
C        3.225403   -1.127612   -1.622383 
C        4.045255   -0.490692   -0.673431 
