50
0 1
C        3.818384   -0.083029   -1.349286 
C        3.879115    0.806098   -0.155124 
C        3.842335   -0.007434    0.980920 
C        3.455547   -1.447167   -0.848294 
C        3.494400   -1.441518    0.527536 
C        2.190008   -1.807719   -1.495495 
C        2.763534    0.355710   -2.153282 
C        1.798473   -0.729668   -2.350668 
C        2.849759    1.827827   -0.320708 
C        2.208037    1.603433   -1.615911 
C        2.018788    2.205491    0.785012 
C        2.958135    0.303409    2.041508 
C        2.061573    1.391242    1.975823 
C        2.340456   -1.874127    1.320915 
C        2.141122   -0.921540    2.332590 
C        1.171210   -2.491987   -0.752096 
C        1.172372   -2.460455    0.696330 
C       -0.077856   -2.537670   -1.421485 
C        0.428397   -0.425690   -2.611325 
C       -0.469324   -1.479294   -2.370921 
C        0.864358    1.925265   -1.852548 
C       -0.049705    0.954987   -2.501995 
C        0.772839    2.786093    0.460922 
C        0.303529    2.825055   -0.893287 
C       -0.436819    2.667915    1.331445 
C        0.770865    0.945410    2.560176 
C        0.830080   -0.489336    2.697766 
C       -0.458252    1.582564    2.296799 
C       -0.097079   -2.375921    1.397205 
C       -0.289203   -1.305682    2.388321 
C       -1.222130   -2.941799   -0.707291 
C       -1.266014   -2.830037    0.711449 
C       -1.903258   -1.262609   -2.240564 
C       -2.420690   -2.243419   -1.290896 
C       -1.438415    1.145948   -2.398614 
C       -2.378612    0.036552   -2.192699 
C       -1.122386    3.043974   -0.864701 
C       -1.565379    2.952263    0.572864 
C       -1.958047    2.264951   -1.624995 
C       -3.366590    0.424720   -1.143811 
C       -2.762650    2.118229    0.598654 
C       -3.076456    1.755581   -0.756084 
C       -1.635773    0.796664    2.388439 
C       -1.539437   -0.646020    2.512677 
C       -2.840124    1.108004    1.576798 
C       -2.588059   -2.290556    1.033064 
C       -3.267678   -1.888066   -0.269259 
C       -3.717807   -0.502846   -0.128017 
C       -2.710355   -1.228415    1.893508 
C       -3.475217   -0.115383    1.228635 
