50
0 1
C        4.391108   -0.719550    0.084729 
C        3.949579   -0.951904   -1.203312 
C        3.372730    0.302437   -1.785724 
C        4.130341    0.723229    0.422276 
C        3.520776    1.341646   -0.764491 
C        3.417611    0.745505    1.619887 
C        3.545457   -1.537641    1.022729 
C        3.035284   -0.677624    1.982951 
C        2.832763   -1.940299   -1.178964 
C        2.576269   -2.278622    0.206316 
C        2.104289    0.001157   -2.313787 
C        1.781554   -1.419215   -1.973018 
C        1.017043    0.937082   -2.247214 
C        2.422835    2.171312   -0.579250 
C        1.275618    2.092789   -1.486139 
C        2.228097    1.543399    1.795603 
C        1.845688    2.386258    0.760317 
C        1.634803   -0.663053    2.338654 
C        1.165205    0.708276    2.396216 
C        1.228171   -2.348056    0.614723 
C        0.752724   -1.630029    1.800900 
C        0.452945   -1.761445   -1.674857 
C        0.245064   -2.452882   -0.440636 
C       -0.372458    0.471855   -2.395339 
C       -0.656903   -0.954922   -2.211994 
C       -1.424228    1.359413   -2.138200 
C        0.150105    2.726695   -0.811795 
C        0.435971    2.709238    0.611588 
C       -1.137251    2.522284   -1.268709 
C       -0.201923    1.008954    2.263628 
C       -0.556848    2.203086    1.487924 
C       -0.658748   -1.403773    1.992109 
C       -1.146053   -0.095641    2.321801 
C       -1.086927   -2.683500   -0.030078 
C       -1.532855   -2.291290    1.258609 
C       -1.957075   -1.382820   -1.971546 
C       -2.173756   -2.468824   -0.984702 
C       -2.795592    0.918028   -1.827797 
C       -3.087846   -0.452772   -1.798839 
C       -2.189341    2.621996   -0.314278 
C       -1.908000    2.359643    1.061134 
C       -3.310055    1.752258   -0.758630 
C       -2.551551    0.202273    2.099334 
C       -2.914301    1.428543    1.527995 
C       -3.884701    1.177797    0.388640 
C       -2.975786   -2.050745    1.165483 
C       -3.357350   -2.253453   -0.276882 
C       -3.956140   -0.977291   -0.746323 
C       -3.457456   -0.828339    1.566348 
C       -4.218888   -0.191462    0.392606 
