50
0 1
C        3.396392   -1.695518   -0.000005 
C        2.729480   -1.980157    1.204404 
C        2.706053   -0.711962    2.027045 
C        3.776464   -0.232602    0.000003 
C        3.349744    0.330545    1.246564 
C        3.349748    0.330552   -1.246553 
C        2.729476   -1.980158   -1.204412 
C        2.706060   -0.711959   -2.027044 
C        1.420882   -2.533001   -1.209625 
C        1.420878   -2.533005    1.209623 
C        0.735966   -2.865435    0.000001 
C        1.431705   -0.547833    2.562333 
C        0.671650   -1.784570    2.246209 
C        0.739261    0.729536    2.551134 
C        2.715039    1.586699    1.245192 
C        1.442648    1.797705    1.976440 
C        2.715045    1.586704   -1.245180 
C        2.618023    2.276687    0.000004 
C        1.442657    1.797706   -1.976432 
C        1.431707   -0.547834   -2.562339 
C        0.671649   -1.784564   -2.246210 
C        0.739268    0.729539   -2.551135 
C       -0.671649   -1.784565   -2.246210 
C       -0.735966   -2.865435   -0.000005 
C       -1.420877   -2.533002   -1.209626 
C       -0.671649   -1.784568    2.246209 
C       -1.420882   -2.533004    1.209621 
C       -0.739268    0.729534    2.551136 
C       -1.431707   -0.547839    2.562339 
C       -1.442657    1.797703    1.976434 
C        0.697414    2.840490    1.242960 
C        1.362475    3.061948    0.000005 
C        0.697416    2.840490   -1.242952 
C       -0.697417    2.840488    1.242957 
C       -0.697414    2.840491   -1.242956 
C       -1.362476    3.061947   -0.000001 
C       -0.739261    0.729541   -2.551133 
C       -1.431704   -0.547829   -2.562333 
C       -1.442648    1.797708   -1.976437 
C       -2.729479   -1.980155   -1.204407 
C       -2.706052   -0.711959   -2.027046 
C       -2.729476   -1.980161    1.204409 
C       -2.706061   -0.711962    2.027043 
C       -3.396391   -1.695519    0.000002 
C       -2.715045    1.586702    1.245183 
C       -2.618024    2.276686   -0.000001 
C       -2.715039    1.586700   -1.245190 
C       -3.349743    0.330547   -1.246564 
C       -3.349749    0.330550    1.246553 
C       -3.776464   -0.232603   -0.000004 
