50
0 1
C       -1.974938    3.265722   -0.151515 
C       -2.838810    2.197367    0.391490 
C       -2.241678    1.689439    1.554412 
C       -0.828197    3.399618    0.770978 
C       -0.948581    2.437814    1.776403 
C        0.369730    3.367548   -0.073399 
C       -1.466534    2.805829   -1.381420 
C       -0.007541    2.868401   -1.376455 
C       -3.088281    1.268442   -0.705842 
C       -2.122051    1.555678   -1.765862 
C       -3.364771   -0.052283   -0.372891 
C       -2.340240    0.285024    1.871304 
C       -3.024346   -0.568586    0.975198 
C       -1.261137   -0.276787    2.635395 
C        0.221925    1.726511    2.275089 
C        0.045475    0.435012    2.764392 
C        1.558184    2.915525    0.502908 
C        1.511151    2.042923    1.718101 
C        2.514404    2.397285   -0.374023 
C        0.761626    1.860341   -2.035457 
C        2.131287    1.829376   -1.647764 
C       -1.374217    0.520013   -2.376999 
C        0.104644    0.616383   -2.486505 
C       -3.011103   -1.028015   -1.336862 
C       -1.985219   -0.772770   -2.299083 
C       -2.635107   -1.978479    0.808206 
C       -2.691366   -2.295503   -0.606898 
C       -0.992512   -1.645299    2.557267 
C       -1.565643   -2.495802    1.543162 
C        1.108812   -0.564458    2.667715 
C        0.481831   -1.842695    2.562267 
C        2.548985    1.072099    1.609978 
C        3.307497    1.364758    0.378140 
C        2.325077   -0.307016    1.969249 
C        2.901399    0.619487   -1.797606 
C        3.679328    0.389354   -0.501206 
C        0.874139   -0.587673   -2.507907 
C        2.271704   -0.575675   -2.141341 
C       -1.156737   -1.963665   -2.340093 
C       -1.621917   -2.896142   -1.244223 
C        0.218351   -1.872061   -2.313105 
C       -0.442137   -3.187423    0.873909 
C        0.815237   -2.761254    1.544024 
C       -0.453907   -3.312078   -0.509746 
C        0.716240   -2.845791   -1.281228 
C        2.810119   -1.356498    1.108217 
C        3.478939   -0.993620   -0.152118 
C        2.787754   -1.616481   -1.218568 
C        1.981698   -2.502220    0.807392 
C        1.911430   -2.631671   -0.667078 
