50
0 1
C        3.494478   -2.162330    0.098187 
C        4.037591   -0.948335   -0.519506 
C        3.828291    0.157663    0.470353 
C        2.878358   -1.776477    1.309959 
C        3.035870   -0.323070    1.541147 
C        1.517994   -2.317666    1.374861 
C        2.372216   -2.609149   -0.784659 
C        1.249982   -2.915361    0.091044 
C        3.211664   -0.620922   -1.617968 
C        2.141135   -1.626126   -1.766584 
C        3.319745    1.288565   -0.276913 
C        2.805507    0.785354   -1.554876 
C        2.560366    2.212321    0.426153 
C        1.921127    0.445903    2.060717 
C        1.859406    1.798662    1.661719 
C        0.481621   -1.642925    2.059912 
C        0.661948   -0.225969    2.426781 
C       -0.817442   -2.132635    1.777292 
C       -0.046659   -2.874136   -0.441371 
C       -1.059546   -2.872807    0.553928 
C        0.793122   -1.202725   -2.098058 
C       -0.271234   -2.095401   -1.666880 
C        1.546916    1.198080   -2.026728 
C        0.503308    0.184394   -2.338647 
C        1.669015    3.002477   -0.348116 
C        1.131809    2.492847   -1.564021 
C        0.612600    2.565913    1.717297 
C        0.535879    3.414719    0.536004 
C       -0.507947    0.537677    2.550760 
C       -0.552532    1.941880    2.139192 
C       -2.031993   -1.361211    2.065692 
C       -1.858356   -0.011078    2.340357 
C       -2.427096   -2.700977    0.154116 
C       -3.079596   -1.773320    1.157439 
C       -1.601828   -1.741525   -1.952588 
C       -2.709252   -2.257611   -1.130216 
C       -0.885507    0.596397   -2.373171 
C       -1.903281   -0.368556   -2.294416 
C       -0.275661    2.854132   -1.585810 
C       -0.613240    3.455219   -0.230143 
C       -1.248269    1.941873   -1.918709 
C       -1.827098    2.166818    1.447912 
C       -2.662304    0.976225    1.620987 
C       -1.823992    2.825899    0.217626 
C       -2.376616    2.098478   -0.937726 
C       -3.839354   -0.838592    0.453125 
C       -3.715076   -1.170532   -1.013121 
C       -3.214151   -0.050339   -1.665340 
C       -3.539397    0.570674    0.608162 
C       -3.282521    1.107604   -0.755156 
