50
0 1
C       -3.383172   -1.315677   -1.141079 
C       -3.586806   -0.360808   -0.142234 
C       -3.004005   -0.829239    1.138122 
C       -2.595125   -2.423348   -0.565611 
C       -2.489224   -2.171154    0.875407 
C       -1.414383   -2.553677   -1.302788 
C       -2.537285   -0.687161   -2.192519 
C       -1.357663   -1.416392   -2.294320 
C       -3.188839    0.946636   -0.660161 
C       -2.445375    0.737183   -1.903634 
C       -2.738091    1.894923    0.240193 
C       -2.284812    0.084017    1.952304 
C       -2.198796    1.478716    1.577163 
C       -1.157867   -0.416066    2.679370 
C       -1.327801   -2.601305    1.513973 
C       -0.800655   -1.774874    2.550162 
C       -0.206283   -3.003512   -0.668484 
C       -0.181898   -3.117780    0.731339 
C        1.018903   -2.693774   -1.359358 
C       -0.106174   -0.751782   -2.554707 
C        1.042317   -1.556705   -2.350149 
C       -1.238508    1.445559   -2.155745 
C       -0.014503    0.692425   -2.487064 
C       -1.896620    2.900473   -0.275859 
C       -1.124570    2.692040   -1.458324 
C       -1.062777    2.270537    1.865752 
C       -0.957256    3.307827    0.823547 
C        0.094227    0.364032    2.808723 
C        0.172018    1.684852    2.378232 
C        0.684479   -1.875074    2.521267 
C        1.055243   -2.751136    1.466936 
C        1.225671   -0.570723    2.644908 
C        2.237138   -2.712139   -0.672551 
C        2.233901   -2.466540    0.774560 
C        2.314964   -0.951001   -2.279877 
C        3.121642   -1.700377   -1.267881 
C        1.283616    1.281250   -2.191180 
C        2.409681    0.442312   -2.010006 
C        0.184818    3.276284   -1.210565 
C        0.227229    3.682163    0.257650 
C        1.338746    2.559797   -1.492044 
C        1.452906    2.115265    1.833275 
C        1.462422    3.154969    0.783283 
C        2.218272    2.667029   -0.304359 
C        2.379817   -0.219859    1.882610 
C        2.932450   -1.212566    1.025354 
C        3.504912   -0.799224   -0.275821 
C        3.261540    0.558768   -0.764446 
C        2.464765    1.173563    1.509820 
C        2.976811    1.521271    0.146815 
