50
0 1
C       -3.400002   -1.958334    0.776863 
C       -3.593070   -0.713033    1.400235 
C       -4.080045    0.204444    0.377389 
C       -3.363872   -1.748779   -0.713019 
C       -3.781618   -0.460410   -0.981086 
C       -2.056940   -2.163549   -1.178624 
C       -2.089021   -2.475282    1.154858 
C       -1.366614   -2.796475   -0.031429 
C       -2.351131   -0.356729    2.138770 
C       -1.472527   -1.536605    2.049088 
C       -1.772604    0.918503    2.044224 
C       -3.585844    1.464483    0.338972 
C       -2.485558    1.912474    1.229038 
C       -2.952985    0.464914   -1.746424 
C       -3.111467    1.746097   -1.082849 
C       -1.286127   -1.312032   -2.009205 
C       -1.662044    0.088050   -2.214632 
C        0.092613   -1.665722   -2.111628 
C        0.035161   -2.830803    0.035161 
C        0.679399   -2.612272   -1.234709 
C       -0.067696   -1.424674    2.062367 
C        0.689283   -2.332791    1.219355 
C       -0.312843    1.052359    2.189188 
C        0.489958   -0.122307    2.399935 
C        0.367497    2.212056    1.607478 
C       -1.738749    2.810321    0.475790 
C       -2.059185    2.612372   -0.997492 
C       -0.319707    2.920935    0.580223 
C       -0.567161    1.083273   -2.256939 
C       -0.809228    2.332515   -1.651952 
C        0.219159    2.896596   -0.766442 
C        1.152845   -0.710593   -2.507807 
C        0.856972    0.691545   -2.386697 
C        2.116819   -2.446629   -1.267773 
C        2.396193   -1.232725   -2.119440 
C        2.123132   -2.189875    1.181982 
C        2.833633   -2.349603   -0.106939 
C        1.928067   -0.030957    2.389653 
C        2.722619   -1.141995    1.870349 
C        1.785381    2.231184    1.468496 
C        2.570058    1.168292    2.031281 
C        1.550303    2.593743   -0.962096 
C        1.905404    1.482379   -1.866860 
C        2.372030    2.542448    0.189462 
C        3.410828   -0.452538   -1.440631 
C        3.792078   -1.184076   -0.232125 
C        3.831035   -0.553601    1.008565 
C        3.711038    0.859922    1.086297 
C        3.175516    0.926885   -1.349916 
C        3.479018    1.586600   -0.088302 
