50
0 1
C        3.897986   -1.264611   -0.407643 
C        4.039067    0.023393   -0.872393 
C        3.700260    0.977821    0.235102 
C        3.430228   -1.226945    1.020087 
C        3.328825    0.171317    1.407879 
C        2.296729   -2.053230    1.123655 
C        2.812081   -1.937026   -1.182367 
C        1.951129   -2.556694   -0.246418 
C        3.018506    0.253112   -1.948555 
C        2.243415   -0.987307   -2.103790 
C        2.763165    1.883506   -0.265434 
C        2.315807    1.402162   -1.622572 
C        1.763705    2.457111    0.589689 
C        2.201160    0.568506    2.134742 
C        1.516928    1.827130    1.821845 
C        1.199969   -1.684071    1.978632 
C        1.171982   -0.382700    2.506453 
C       -0.061436   -2.299512    1.719956 
C        0.607087   -2.759739   -0.598522 
C       -0.276059   -3.022561    0.514336 
C        0.830661   -0.927738   -2.263637 
C        0.067099   -2.035894   -1.728845 
C        0.931424    1.545848   -1.994780 
C        0.172503    0.379395   -2.388929 
C        0.665632    3.115889   -0.055577 
C        0.277427    2.668683   -1.442531 
C       -0.507774    3.386806    0.653059 
C        0.139011    1.717523    2.313545 
C       -0.118914    0.338178    2.637773 
C       -0.873515    2.501632    1.769648 
C       -1.346977   -1.684277    2.114725 
C       -1.371145   -0.259030    2.373966 
C       -1.689697   -3.124479    0.289219 
C       -2.371327   -2.310918    1.387071 
C       -1.356192   -1.992626   -1.867087 
C       -2.218166   -2.752991   -0.931257 
C       -1.269994    0.454054   -2.347925 
C       -2.005873   -0.768048   -2.168533 
C       -1.125508    2.796231   -1.562445 
C       -1.646107    3.373653   -0.283815 
C       -1.904544    1.656517   -1.906092 
C       -2.166574    1.903420    1.489011 
C       -2.429117    0.540504    1.754721 
C       -2.613469    2.498884    0.204126 
C       -2.986482    1.575231   -0.874989 
C       -3.405136   -1.542599    0.775771 
C       -3.429320   -1.931521   -0.687957 
C       -3.284315   -0.755167   -1.418583 
C       -3.372907   -0.140228    0.874780 
C       -3.511238    0.383409   -0.519116 
