50
0 1
C       -3.785506    0.294979   -1.526529 
C       -3.735489   -1.069529   -0.929180 
C       -3.907989   -0.959131    0.451411 
C       -3.775663    1.241958   -0.478320 
C       -3.958592    0.532931    0.784843 
C       -2.586678    2.091747   -0.627301 
C       -2.553717    0.461201   -2.309430 
C       -1.884550    1.650527   -1.825081 
C       -2.542204   -1.716403   -1.462645 
C       -1.806149   -0.730775   -2.316958 
C       -1.783732   -2.485460   -0.607130 
C       -2.956746   -1.567044    1.370080 
C       -1.956819   -2.388497    0.851896 
C       -3.092312    0.757855    1.825893 
C       -2.500503   -0.548815    2.293426 
C       -1.802086    2.435727    0.512980 
C       -1.976804    1.698856    1.745994 
C       -0.479796    2.839403    0.254543 
C       -0.475614    1.736103   -1.947256 
C        0.106852    2.676576   -1.062409 
C       -0.364243   -0.687578   -2.356410 
C        0.325478    0.571007   -2.333779 
C       -0.356770   -2.647816   -0.877434 
C        0.328851   -1.863678   -1.854978 
C       -0.615937   -2.363013    1.427019 
C        0.281940   -2.869010    0.390588 
C       -1.144967   -0.341626    2.584693 
C       -0.838646    1.089237    2.349508 
C       -0.143048   -1.300582    2.225425 
C        0.598471    2.615584    1.221094 
C        0.501847    1.501601    2.090749 
C        1.530720    2.740359   -0.947461 
C        1.837230    2.861198    0.532475 
C        1.788265    0.604895   -2.152327 
C        2.375109    1.792631   -1.512239 
C        1.737199   -1.839240   -1.766111 
C        2.495905   -0.601150   -2.017601 
C        1.646686   -2.719111    0.522533 
C        2.385724   -2.536360   -0.684642 
C        1.273981   -0.892397    2.161190 
C        1.611670    0.538853    2.184542 
C        2.181664   -1.794542    1.559803 
C        2.943311    2.106960    0.798407 
C        3.484901    1.616834   -0.537832 
C        2.879710    0.944461    1.683027 
C        3.731116   -0.701273   -1.188121 
C        3.613104   -1.823948   -0.352776 
C        3.475094   -1.361029    1.075861 
C        4.091668    0.422946   -0.337188 
C        3.798061   -0.016425    1.113155 
