50
0 1
C        3.935545   -1.054572    0.580072 
C        3.998296    0.147493   -0.295100 
C        3.459599   -0.187791   -1.538096 
C        3.161556   -2.093403   -0.157686 
C        2.931842   -1.610148   -1.439872 
C        2.001823   -2.461277    0.661769 
C        3.171248   -0.699577    1.706810 
C        2.070183   -1.651377    1.850138 
C        3.399558    1.258846    0.441668 
C        2.845927    0.737945    1.694706 
C        2.636274    2.184376   -0.283135 
C        2.414415    0.601019   -2.149676 
C        2.104422    1.836718   -1.604000 
C        1.601602   -1.602453   -1.986620 
C        1.301438   -0.296543   -2.502630 
C        0.722218   -2.702739    0.057206 
C        0.572163   -2.346133   -1.325426 
C       -0.465686   -2.613975    0.914676 
C        0.890920   -1.192133    2.437186 
C       -0.372191   -1.832542    2.084447 
C        1.591703    1.176956    2.194184 
C        0.656039    0.198833    2.675017 
C        1.581565    2.862524    0.421415 
C        0.999980    2.343156    1.592225 
C        0.705348    2.339346   -1.681771 
C        0.481028    3.118442   -0.547595 
C       -0.057721    0.165124   -2.617707 
C       -0.381716    1.541794   -2.231442 
C       -0.737974   -2.099810   -1.842643 
C       -1.052870   -0.813851   -2.513548 
C       -1.774264   -2.690245    0.311227 
C       -1.858123   -2.519145   -1.136741 
C       -2.884436   -2.023383    0.872847 
C       -1.420910   -0.890562    2.458601 
C       -0.798336    0.399609    2.649277 
C       -2.701817   -1.012681    1.892794 
C       -0.478882    2.499427    1.487220 
C       -0.760966    3.028931    0.183128 
C       -1.386390    1.569205    2.081263 
C       -1.681897    1.821352   -1.790200 
C       -1.887342    2.601551   -0.537236 
C       -2.449513   -0.492970   -2.209778 
C       -2.997511   -1.595023   -1.437156 
C       -3.693321   -1.381491   -0.247316 
C       -2.761867    0.819112   -1.833842 
C       -3.382447    0.182525    1.506824 
C       -2.696471    1.439200    1.493631 
C       -2.937797    2.026586    0.189081 
C       -4.000716   -0.050063    0.146532 
C       -3.613527    1.013817   -0.674727 
