50
0 1
C       -3.689302    0.701454    0.781497 
C       -2.876912    1.309100    1.719536 
C       -2.159858    2.452239    1.067029 
C       -3.444171    1.403713   -0.546424 
C       -2.374376    2.368836   -0.340995 
C       -3.322627    0.458654   -1.527343 
C       -3.612853   -0.730614    0.534951 
C       -3.579992   -0.905156   -0.914897 
C       -2.707232   -1.473157    1.300711 
C       -1.868895    0.568783    2.462036 
C       -1.836543   -0.804370    2.289663 
C       -0.852801    2.516391    1.616779 
C       -0.601748    1.326561    2.445266 
C        0.154063    2.968463    0.779512 
C       -1.232760    2.369290   -1.211599 
C       -0.085826    2.963958   -0.659358 
C       -2.105608    0.356925   -2.343924 
C       -1.032301    1.254438   -2.176603 
C       -2.710542   -1.794813   -1.505607 
C       -1.812453   -1.042462   -2.462503 
C       -1.890266   -2.515605    0.672423 
C       -1.853715   -2.647531   -0.718445 
C       -0.539066   -1.468032    2.319595 
C       -0.629121   -2.601552    1.407399 
C        0.662521    0.715027    2.430201 
C        0.676776   -0.757771    2.494578 
C        1.536897    2.578133    1.025628 
C        1.799080    1.441449    1.817010 
C        1.202634    2.771555   -1.271511 
C        2.211542    2.783185   -0.265487 
C        0.319960    0.748082   -2.427237 
C        1.428347    1.634098   -2.166371 
C       -0.512922   -1.545599   -2.360007 
C       -0.543859   -2.675703   -1.394797 
C        0.613687   -0.665036   -2.410742 
C        0.521562   -3.049625    0.771125 
C        0.587471   -2.978142   -0.704892 
C        1.870985   -1.449324    2.103610 
C        1.774280   -2.595604    1.266809 
C        3.006427    0.684718    1.491612 
C        3.035728   -0.691359    1.683330 
C        3.250258    1.883173   -0.679517 
C        2.712165    1.140297   -1.903258 
C        3.706654    0.955693    0.208332 
C        1.900831   -1.188229   -1.918807 
C        1.876373   -2.352221   -1.068876 
C        2.689178   -2.412996    0.098191 
C        3.573395   -1.364338    0.419579 
C        2.968091   -0.269307   -1.706313 
C        3.796843   -0.375669   -0.520887 
