50
0 1
C        3.880261   -1.064739   -0.465120 
C        3.757965    0.327121   -0.963156 
C        3.775363    1.167811    0.172032 
C        3.547494   -1.028539    1.011788 
C        3.490825    0.306902    1.405784 
C        2.402453   -1.860855    1.228709 
C        2.929828   -1.844830   -1.100280 
C        2.185344   -2.576401   -0.061292 
C        2.630990    0.369407   -1.869375 
C        2.114130   -1.004712   -2.025620 
C        1.684439    1.425795   -1.822214 
C        2.886865    2.235753    0.203747 
C        1.934195    2.433832   -0.834759 
C        2.313840    0.825071    2.047878 
C        2.089739    2.163966    1.494349 
C        1.247342   -1.395812    1.922675 
C        1.172092    0.012448    2.284418 
C        0.005900   -2.163692    1.748467 
C        0.955760   -3.001423   -0.376449 
C       -0.078556   -3.090968    0.663051 
C        0.766198   -1.266377   -2.197826 
C        0.274262   -2.522811   -1.622118 
C        0.284718    1.165238   -2.214759 
C       -0.216067   -0.179028   -2.360195 
C       -0.663230    2.201401   -1.944744 
C        0.781867    3.065253   -0.174826 
C        0.839023    2.674228    1.269101 
C       -0.395862    3.140348   -0.813887 
C       -0.154882    0.672757    2.347028 
C       -0.340962    2.041343    1.833834 
C       -1.221136   -1.590961    2.176948 
C       -1.292163   -0.128829    2.424886 
C       -2.459899   -1.990801    1.589564 
C       -1.290938   -3.310539   -0.046912 
C       -1.058042   -2.783539   -1.462800 
C       -2.488268   -2.773259    0.408888 
C       -1.637466   -0.460343   -2.178600 
C       -2.078988   -1.767872   -1.701953 
C       -3.050270   -1.894752   -0.693593 
C       -2.051136    1.939855   -1.911754 
C       -2.534934    0.599793   -1.885590 
C       -1.609046    3.181376    0.016761 
C       -1.570822    2.475760    1.333138 
C       -2.653563    2.672163   -0.745421 
C       -2.603255    0.337834    1.948226 
C       -3.273340   -0.767023    1.338179 
C       -3.613616   -0.728795   -0.051807 
C       -3.496720    0.494656   -0.736485 
C       -2.733471    1.594972    1.345051 
C       -3.384258    1.671819    0.047033 
