50
0 1
C        4.280586   -0.105163   -0.193426 
C        3.887334   -1.348202   -0.848285 
C        3.143918   -2.104052    0.071065 
C        3.704941   -0.149901    1.198136 
C        2.984235   -1.354361    1.348160 
C        3.029561    1.114840    1.440196 
C        3.644660    0.958413   -0.850589 
C        3.042402    1.857027    0.147944 
C        2.925639   -0.969850   -1.946810 
C        2.765192    0.433601   -1.939253 
C        1.921289   -2.578054   -0.585860 
C        1.745675   -1.784046   -1.832845 
C        0.831255   -2.823820    0.183875 
C        1.696450   -1.366790    2.012338 
C        0.702756   -2.283073    1.563666 
C        1.861047    1.121803    2.175356 
C        1.195775   -0.137418    2.534063 
C        0.799651    2.103808    1.909298 
C        1.956492    2.580996   -0.217874 
C        0.900873    2.910820    0.764254 
C        1.472157    1.005267   -2.150601 
C        1.245575    2.282937   -1.507085 
C        0.474795   -1.268325   -2.143229 
C        0.327296    0.162385   -2.397573 
C       -0.486809   -2.754982   -0.427827 
C       -0.671811   -2.009600   -1.610316 
C       -0.688778   -2.086927    1.798477 
C       -1.447112   -2.655664    0.657712 
C       -0.217391    0.117665    2.642109 
C       -0.473212    1.531967    2.257932 
C       -1.180873   -0.870856    2.366759 
C       -1.668852    1.887337    1.593352 
C       -0.284446    3.195450    0.044429 
C       -0.042043    2.769276   -1.383090 
C       -1.551689    2.718409    0.427901 
C       -1.020519    0.729387   -2.339185 
C       -1.193781    2.028935   -1.806098 
C       -2.247135    2.282471   -0.810063 
C       -1.997367   -1.545466   -1.844978 
C       -2.181432   -0.119723   -2.241025 
C       -2.748281   -2.302656    0.389580 
C       -3.053920   -1.926780   -0.989079 
C       -2.529633   -0.466221    2.018504 
C       -2.774697    0.955863    1.605390 
C       -3.371889   -1.296105    1.268111 
C       -3.347847    1.471768   -0.742419 
C       -3.385711    0.341185   -1.667713 
C       -4.015973   -0.792128   -0.929089 
C       -3.741218    0.967640    0.590375 
C       -4.217136   -0.429084    0.395332 
