50
0 1
C       -3.807758   -1.231989    0.015689 
C       -3.491218   -0.514654   -1.273900 
C       -3.439555    0.838834   -0.988504 
C       -3.601863   -0.233425    1.109523 
C       -3.512019    1.013773    0.528512 
C       -2.472939   -0.703220    1.922349 
C       -2.875306   -2.239592    0.180738 
C       -2.090542   -2.005955    1.421345 
C       -2.322976   -1.145303   -1.870080 
C       -2.089062   -2.359594   -1.066067 
C       -1.210123   -0.388740   -2.328506 
C       -2.351500    1.639921   -1.450613 
C       -1.287719    1.062491   -2.201837 
C       -2.476610    1.945396    0.894026 
C       -2.026681    2.570596   -0.352726 
C       -1.465868    0.215087    2.351513 
C       -1.516936    1.611108    1.885116 
C       -0.190999   -0.348372    2.626364 
C       -0.765498   -2.470370    1.494806 
C        0.158929   -1.687959    2.240377 
C       -0.840331   -2.863621   -0.982342 
C       -0.219305   -3.182043    0.344072 
C        0.120122   -1.033514   -2.364558 
C        0.214397   -2.335969   -1.845716 
C        1.365008   -0.230699   -2.385541 
C       -0.072302    1.830801   -2.235226 
C        1.253931    1.171974   -2.302875 
C       -0.851456    3.281775   -0.382816 
C        0.053978    3.014420   -1.489068 
C       -0.300226    2.380856    1.858205 
C       -0.064011    3.314488    0.830084 
C        1.043464    0.454865    2.598843 
C        1.001186    1.773975    2.222824 
C        1.611332   -1.755536    1.994158 
C        2.153201   -0.409559    2.191755 
C        1.141977   -3.271518    0.148951 
C        1.445351   -2.856703   -1.280035 
C        2.116039   -2.585729    0.993540 
C        2.591374   -0.787510   -1.866910 
C        2.600869   -2.136213   -1.306331 
C        3.141075   -2.048608    0.111901 
C        3.143750    0.093963    1.344090 
C        3.420820   -0.007001   -1.007275 
C        3.621229   -0.767430    0.281669 
C        2.177261    1.972787   -1.512721 
C        1.442841    3.083526   -0.948933 
C        1.377384    3.243696    0.430453 
C        2.039063    2.305567    1.318477 
C        3.117859    1.332884   -0.688404 
C        2.990361    1.448042    0.791606 
