50
0 1
C       -3.227397   -2.018462    0.857569 
C       -3.589978   -0.650806    0.798973 
C       -3.562900   -0.258570   -0.591645 
C       -2.753705   -2.438114   -0.534991 
C       -3.043552   -1.351327   -1.420241 
C       -1.437467   -2.871357   -0.412637 
C       -2.088389   -2.162267    1.751521 
C       -1.035972   -2.770316    1.031691 
C       -2.728557    0.098625    1.708936 
C       -1.808450   -0.852021    2.316440 
C       -2.290264    1.411257    1.382428 
C       -2.939552    0.980728   -0.976630 
C       -2.482186    1.921474   -0.001403 
C       -1.985971   -0.802880   -2.232590 
C       -2.125622    0.671107   -2.140227 
C       -0.433738   -2.512471   -1.392820 
C       -0.696234   -1.356721   -2.272992 
C        0.865955   -2.841502   -1.046165 
C        0.326508   -2.527351    1.373470 
C        1.267230   -2.952235    0.390565 
C       -0.463257   -0.494614    2.612248 
C        0.631490   -1.416190    2.253947 
C       -1.152483    1.849440    2.103196 
C       -0.216299    0.892716    2.669612 
C       -0.385960    2.988378    1.626158 
C       -1.598615    2.929187   -0.495095 
C       -0.595300    3.527429    0.382225 
C       -1.069356    1.500104   -2.466573 
C       -0.947858    2.720970   -1.751546 
C        0.448701   -0.483896   -2.596398 
C        0.272087    0.924086   -2.658057 
C        1.991472   -2.220748   -1.716052 
C        1.767051   -0.892034   -2.301678 
C        2.638077   -2.573368    0.489406 
C        3.113604   -2.191790   -0.868874 
C        1.957254   -0.907697    2.199428 
C        2.943262   -1.506644    1.364915 
C        1.146514    1.416754    2.471407 
C        1.071766    2.656774    1.778563 
C        2.165724    0.550739    2.128295 
C        0.742901    3.500007   -0.342918 
C        0.521355    2.998774   -1.597795 
C        1.238810    1.828615   -2.087304 
C        1.724835    2.851852    0.533213 
C        2.736193    0.010292   -1.704795 
C        3.563488   -0.783955   -0.787555 
C        3.578892   -0.400085    0.546736 
C        3.003764    0.849893    0.972382 
C        2.364978    1.338486   -1.364248 
C        2.577153    1.819736    0.017906 
