50
0 1
C        3.481523   -1.762131   -0.610953 
C        3.631503   -0.419251   -1.235894 
C        3.787458    0.515011   -0.208279 
C        3.313064   -1.596210    0.781147 
C        3.547567   -0.201099    1.116303 
C        2.027076   -2.177520    1.175603 
C        2.251797   -2.353297   -1.155212 
C        1.435144   -2.752666   -0.029571 
C        2.533838   -0.260607   -2.178111 
C        1.676092   -1.482806   -2.104647 
C        1.896813    0.963755   -2.244209 
C        3.005682    1.719633   -0.179007 
C        2.170760    2.013944   -1.259144 
C        2.628865    0.525544    1.849895 
C        2.435775    1.849323    1.170722 
C        1.184499   -1.517819    2.100299 
C        1.463240   -0.111947    2.483233 
C       -0.162513   -1.961399    2.110527 
C        0.041346   -2.827193   -0.196559 
C       -0.688230   -2.747875    1.026409 
C        0.247454   -1.411743   -2.237356 
C       -0.554075   -2.291662   -1.425510 
C        0.470104    1.030793   -2.587872 
C       -0.321113   -0.148008   -2.708986 
C        0.923410    2.747730   -1.042114 
C       -0.068572    2.223929   -1.986883 
C        1.297420    2.576201    1.375829 
C        0.512335    3.085220    0.237748 
C        0.398961    0.703757    2.835378 
C        0.336982    2.095227    2.366739 
C       -1.270138   -1.112591    2.606510 
C       -1.003251    0.241999    2.822881 
C       -2.125345   -2.563166    0.979645 
C       -2.466541   -1.456644    1.945018 
C       -1.984931   -2.124276   -1.445592 
C       -2.759921   -2.330226   -0.206088 
C       -1.734927    0.032081   -2.640044 
C       -2.553185   -1.026222   -2.104251 
C       -1.434714    2.297292   -1.685757 
C       -2.273464    1.278382   -2.181749 
C       -0.917717    2.988275    0.605971 
C       -0.971172    2.377369    1.936782 
C       -1.844576    1.232463    2.199554 
C       -1.863611    2.607743   -0.304444 
C       -3.279974   -0.494936    1.252322 
C       -3.647926   -1.114866   -0.019732 
C       -3.599093   -0.394524   -1.193993 
C       -3.324905    1.002418   -1.147985 
C       -2.894358    0.888520    1.293045 
C       -2.954455    1.644073    0.048380 
