50
0 1
C        3.833715    1.191658   -0.405346 
C        3.930856   -0.060036    0.396644 
C        3.658175   -1.123932   -0.453851 
C        3.239926    0.890322   -1.658146 
C        3.162126   -0.552682   -1.774846 
C        2.007846    1.680929   -1.822076 
C        2.948577    2.096919    0.319706 
C        1.987081    2.584996   -0.658784 
C        3.100305    0.137471    1.594944 
C        2.470428    1.478856    1.502542 
C        2.322509   -0.899487    2.041168 
C        2.720584   -2.153010   -0.063447 
C        2.248896   -2.159550    1.263656 
C        1.949535   -1.145939   -2.059262 
C        1.741340   -2.297713   -1.123520 
C        0.795472    1.110921   -2.251145 
C        0.782040   -0.355432   -2.469524 
C       -0.477921    1.772182   -1.920778 
C        0.784525    3.006360   -0.179936 
C       -0.411658    2.832301   -0.986043 
C        1.103717    1.693173    1.926583 
C        0.423054    2.730499    1.231281 
C        0.958498   -0.653083    2.592516 
C        0.291695    0.618082    2.474423 
C        0.969316   -2.727207    1.499825 
C        0.220137   -1.825807    2.427031 
C        0.455622   -2.796548   -0.891904 
C        0.080076   -3.090674    0.463000 
C       -0.418633   -1.011902   -2.476351 
C       -0.595138   -2.322788   -1.768869 
C       -1.769961    1.075710   -2.063770 
C       -1.716010   -0.309099   -2.422894 
C       -2.902067    1.475828   -1.270998 
C       -1.510047    3.095658   -0.079212 
C       -0.975273    2.830477    1.321927 
C       -2.705889    2.467672   -0.215664 
C       -1.162773    0.616263    2.365471 
C       -1.781624    1.829564    1.910736 
C       -3.016974    1.786424    1.113623 
C       -1.161430   -1.835673    2.052374 
C       -1.287294   -2.761464    0.922012 
C       -1.907242   -0.636953    2.120856 
C       -1.923760   -2.434053   -1.405894 
C       -2.669357   -1.243546   -1.935330 
C       -2.307713   -2.589660    0.004124 
C       -3.770015    0.486410   -0.682286 
C       -3.650864    0.619758    0.829579 
C       -3.124443   -0.650335    1.334878 
C       -3.631780   -0.863887   -0.976215 
C       -3.308187   -1.607971    0.307193 
