50
0 1
C        4.215696   -0.443284    0.230340 
C        3.615520    0.054205    1.404741 
C        3.204694    1.431113    1.206988 
C        3.978307    0.566778   -0.867026 
C        3.401347    1.707753   -0.285238 
C        3.231043   -0.074541   -1.893673 
C        3.479626   -1.667306   -0.152801 
C        2.985978   -1.499962   -1.437415 
C        2.552813   -0.861964    1.839833 
C        2.488436   -1.940297    0.902584 
C        1.342276   -0.351445    2.426293 
C        1.946249    1.864436    1.577770 
C        0.979285    1.041351    2.310621 
C        2.169431    2.244273   -0.770095 
C        1.411795    2.639494    0.430566 
C        1.981550    0.429036   -2.343301 
C        1.425672    1.640648   -1.831186 
C        1.615018   -1.823946   -1.760583 
C        1.045460   -0.711119   -2.457637 
C        1.223440   -2.546506    0.575903 
C        0.805982   -2.565684   -0.840317 
C        0.291281   -1.305079    2.503385 
C        0.220657   -2.418469    1.535744 
C       -1.024378   -0.876011    2.764368 
C       -0.407922    1.436039    2.301387 
C       -1.423814    0.473435    2.589454 
C        0.101998    2.909814    0.336159 
C       -0.837954    2.501710    1.409683 
C       -0.031047    1.834968   -1.892263 
C       -0.585811    2.733466   -0.953205 
C       -0.352546   -0.546615   -2.551583 
C       -0.926089    0.799804   -2.427138 
C       -0.555197   -2.600007   -1.151268 
C       -1.103786   -1.684216   -2.145182 
C       -1.204812   -2.631955    1.224169 
C       -1.983897   -1.757369    2.034197 
C       -1.594964   -2.798975   -0.116745 
C       -2.748529    0.454228    1.919066 
C       -3.043388   -0.954705    1.530179 
C       -2.115884    2.538574    0.866662 
C       -1.980109    2.732693   -0.632041 
C       -3.102497    1.493846    1.076960 
C       -2.323602    0.892312   -2.196632 
C       -2.846756    1.883445   -1.277858 
C       -3.688702    1.177010   -0.232211 
C       -2.512834   -1.548203   -1.886748 
C       -2.801333   -2.193522   -0.553864 
C       -3.534980   -1.247457    0.235515 
C       -3.109147   -0.312005   -1.938170 
C       -3.873577   -0.119790   -0.638387 
