50
0 1
C       -3.800118   -1.577221    0.530284 
C       -3.522271   -1.860697   -0.895930 
C       -3.365784   -0.538137   -1.581518 
C       -3.889635   -0.106979    0.681592 
C       -3.712616    0.499864   -0.616281 
C       -2.998698    0.264909    1.748585 
C       -2.711811   -2.031368    1.292798 
C       -2.160447   -0.904353    2.084336 
C       -2.308158   -2.540094   -0.988884 
C       -1.780870   -2.748889    0.391971 
C       -2.105043   -0.502262   -2.206603 
C       -1.420865   -1.795923   -1.915638 
C       -1.299764    0.695887   -2.249806 
C       -2.977523    1.693915   -0.687847 
C       -1.845371    1.833314   -1.631170 
C       -2.376763    1.515757    1.706683 
C       -2.576607    2.312338    0.535231 
C       -0.975266    1.679193    2.130397 
C       -0.791959   -0.755119    2.255105 
C       -0.165023    0.569483    2.387582 
C       -0.448231   -2.603467    0.590877 
C        0.071405   -1.840283    1.750984 
C       -0.071410   -1.840279   -1.750993 
C        0.448238   -2.603404   -0.590817 
C        0.165011    0.569449   -2.387604 
C        0.791938   -0.755173   -2.255114 
C        0.975255    1.679159   -2.130423 
C       -0.942684    2.850708   -1.066989 
C       -1.334620    3.077702    0.290215 
C       -0.419555    2.811648    1.352698 
C        0.419541    2.811622   -1.352723 
C        0.942673    2.850736    1.066966 
C        1.334608    3.077703   -0.290253 
C        1.299756    0.695937    2.249798 
C        1.845363    1.833354    1.631159 
C        1.420877   -1.795861    1.915695 
C        2.105052   -0.502216    2.206620 
C        1.780869   -2.748896   -0.391942 
C        2.308192   -2.540073    0.988916 
C        2.160450   -0.904376   -2.084348 
C        2.711814   -2.031390   -1.292786 
C        2.376756    1.515731   -1.706707 
C        2.576601    2.312335   -0.535249 
C        2.977520    1.693932    0.687823 
C        2.998691    0.264888   -1.748596 
C        3.365800   -0.538103    1.581527 
C        3.522295   -1.860679    0.895960 
C        3.800128   -1.577223   -0.530271 
C        3.712617    0.499880    0.616269 
C        3.889642   -0.106977   -0.681579 
