50
0 1
C       -3.143385   -1.963152   -0.774144 
C       -2.049712   -2.253731   -1.720141 
C       -1.009092   -2.884544   -1.021978 
C       -2.649087   -2.330066    0.580592 
C       -1.376996   -2.914804    0.437445 
C       -2.831581   -1.171102    1.429993 
C       -3.427810   -0.599203   -0.806020 
C       -3.385409   -0.082899    0.574389 
C       -1.785573   -1.013923   -2.439840 
C       -2.605072    0.060908   -1.848729 
C       -0.479961   -0.742819   -2.781379 
C        0.355972   -2.657763   -1.408602 
C        0.601516   -1.645542   -2.371146 
C        1.376989   -2.914806   -0.437444 
C       -0.355978   -2.657762    1.408602 
C        1.009086   -2.884546    1.021978 
C       -1.823452   -0.856323    2.330945 
C       -0.601519   -1.645540    2.371145 
C       -1.457670    0.545934    2.583312 
C       -2.967248    1.196443    0.749497 
C       -2.117464    1.557945    1.903050 
C       -2.081886    1.336076   -1.648951 
C       -2.482548    2.019890   -0.408141 
C        0.013804    0.630347   -2.764109 
C       -0.765108    1.682916   -2.220097 
C        1.823451   -0.856328   -2.330945 
C        1.457672    0.545930   -2.583312 
C        2.649081   -2.330072   -0.580591 
C        2.831579   -1.171109   -1.429993 
C        2.049707   -2.253734    1.720141 
C        3.143380   -1.963158    0.774145 
C        0.479960   -0.742819    2.781379 
C       -0.013802    0.630347    2.764109 
C        1.785570   -1.013926    2.439840 
C        0.765112    1.682915    2.220098 
C       -1.377328    2.723402    1.552469 
C       -1.729084    3.054509    0.114901 
C        0.026292    2.808457    1.696798 
C       -0.026286    2.808456   -1.696799 
C       -0.516250    3.499087   -0.496186 
C        0.516259    3.499085    0.496184 
C        2.117468    1.557939   -1.903050 
C        1.377334    2.723398   -1.552470 
C        1.729091    3.054505   -0.114902 
C        3.385408   -0.082906   -0.574389 
C        3.427808   -0.599210    0.806021 
C        2.605072    0.060903    1.848730 
C        2.081888    1.336072    1.648951 
C        2.967250    1.196436   -0.749497 
C        2.482553    2.019885    0.408141 
