50
0 1
C        3.517017   -0.954438   -0.626595 
C        2.919550   -2.060899   -0.062469 
C        1.950585   -2.614106   -1.066208 
C        2.781880   -0.641850   -1.931408 
C        1.792993   -1.592769   -2.130334 
C        2.476892    0.776927   -1.919132 
C        3.576330    0.250618    0.124927 
C        3.079032    1.343822   -0.765290 
C        2.954259    0.365745    1.384430 
C        2.222535   -1.992379    1.214004 
C        2.257273   -0.774481    1.964644 
C        0.870967   -3.105999   -0.379184 
C        0.987647   -2.736782    1.070837 
C       -0.409181   -3.035375   -1.010726 
C        0.444464   -1.197994   -2.520531 
C       -0.598416   -2.053017   -2.128318 
C        1.183515    1.230159   -2.348429 
C        0.169031    0.229039   -2.731846 
C        0.770687    2.470281   -1.779840 
C        2.388397    2.282184    0.058673 
C        2.331378    1.721774    1.429285 
C        1.288581    2.918558   -0.481431 
C        1.233054    1.968617    2.205402 
C        1.113562   -0.508345    2.767544 
C        0.701043    0.872324    3.001333 
C       -0.176849   -2.424018    1.806558 
C       -0.089140   -1.304361    2.688762 
C       -1.537150   -3.084390   -0.222337 
C       -1.474934   -2.695442    1.208593 
C       -1.974563   -1.590724   -2.016792 
C       -2.595216   -2.252104   -0.868959 
C       -1.192014    0.625726   -2.714204 
C       -2.251007   -0.257292   -2.232760 
C       -0.618500    2.835936   -1.803614 
C       -1.558742    1.958972   -2.283730 
C        0.130024    3.262439    0.381569 
C        0.062672    2.709007    1.676273 
C       -1.029368    3.257027   -0.409614 
C       -0.710479    0.948747    2.978248 
C       -1.240941   -0.390278    2.845260 
C       -1.137230    2.029438    2.091461 
C       -2.549779   -1.820516    1.422146 
C       -3.227010   -1.522474    0.115850 
C       -2.386946   -0.562027    2.103284 
C       -3.077036    0.504810   -1.243652 
C       -2.647177    1.831516   -1.252844 
C       -2.206373    2.510716   -0.052677 
C       -2.246762    1.817452    1.202735 
C       -3.373348   -0.082817    0.018003 
C       -2.895208    0.533043    1.223103 
