50
0 1
C        3.759573   -0.171080    0.223336 
C        3.450497   -0.416062   -1.101463 
C        2.747978   -1.734799   -1.195469 
C        3.233762   -1.346214    1.026604 
C        2.532081   -2.249771    0.108858 
C        2.577306   -0.854830    2.121451 
C        3.305311    1.054498    0.878517 
C        2.617846    0.649196    2.106417 
C        2.705814    2.031821    0.109261 
C        2.686472    0.532009   -1.895638 
C        2.485759    1.805755   -1.341201 
C        1.673045   -1.578573   -2.124654 
C        1.568339   -0.154595   -2.523814 
C        0.537844   -2.316662   -1.895068 
C        1.241370   -2.774325    0.457980 
C        0.400010   -3.067648   -0.650729 
C        1.210026   -1.248988    2.427669 
C        0.584057   -2.311425    1.699178 
C        1.353477    1.114059    2.437786 
C        0.487383   -0.061631    2.755219 
C        1.505879    2.746922    0.616014 
C        0.776471    2.255868    1.754677 
C        1.293341    2.475801   -1.710365 
C        0.770710    3.194581   -0.508337 
C        0.288893    0.441264   -2.680045 
C        0.202150    1.830394   -2.341392 
C       -0.792151   -1.786617   -2.274936 
C       -0.937736   -0.374343   -2.564680 
C       -1.014349   -3.261323   -0.460945 
C       -1.747006   -2.490239   -1.535463 
C       -0.829332   -2.334680    1.796245 
C       -1.607309   -2.968592    0.747752 
C       -0.920768    0.004016    2.642892 
C       -1.589061   -1.179184    2.255835 
C       -0.624465    2.376836    1.754433 
C       -1.504609    1.288339    2.296708 
C       -0.644547    3.180446   -0.564867 
C       -1.035303    2.394058   -1.763648 
C       -1.337144    2.971577    0.639714 
C       -2.144995    0.220796   -2.154129 
C       -2.186023    1.643927   -1.754225 
C       -2.865675   -1.825267   -0.911813 
C       -2.826468   -2.132331    0.499239 
C       -2.851925   -1.107565    1.471426 
C       -3.112691   -0.495825   -1.295667 
C       -2.739269    1.345670    1.661923 
C       -2.647942    2.365868    0.562063 
C       -3.077848    1.766847   -0.610147 
C       -3.366834    0.151663    1.098840 
C       -3.591943    0.400359   -0.291344 
