50
0 1
C       -2.824132   -2.547974    0.711424 
C       -3.515715   -1.303207    0.378989 
C       -3.217086   -0.995992   -0.997843 
C       -2.051102   -2.954946   -0.488936 
C       -2.139990   -1.918160   -1.442156 
C       -0.742534   -3.319768   -0.003823 
C       -1.882160   -2.272323    1.731353 
C       -0.588678   -2.804038    1.340429 
C       -3.158210   -0.330872    1.378025 
C       -1.971606   -0.863389    2.125167 
C       -3.217096    0.995986    0.997838 
C       -3.158208    0.330862   -1.378030 
C       -3.515721    1.303197   -0.378995 
C       -1.971606    0.863383   -2.125168 
C       -0.938521   -1.359511   -2.067524 
C       -0.818880    0.104934   -2.291814 
C        0.321434   -3.160644   -0.903310 
C        0.222786   -2.101450   -1.942241 
C        1.592956   -3.093291   -0.338185 
C        0.602219   -2.119901    1.720212 
C        1.771161   -2.568511    1.008589 
C       -0.818885   -0.104937    2.291809 
C        0.531056   -0.752343    2.210055 
C       -2.140000    1.918157    1.442153 
C       -0.938527    1.359509    2.067525 
C       -2.824144    2.547969   -0.711422 
C       -1.882166    2.272315   -1.731352 
C       -2.051114    2.954942    0.488941 
C       -0.588688    2.804032   -1.340418 
C       -0.742542    3.319756    0.003824 
C        0.531054    0.752353   -2.210060 
C        0.602216    2.119904   -1.720223 
C        1.570383   -1.493669   -2.050795 
C        2.442038   -2.262879   -1.248748 
C        1.720895   -0.057237   -2.152198 
C        2.940123   -1.774836    1.011308 
C        3.438550   -1.661256   -0.434660 
C        1.720887    0.057239    2.152193 
C        2.941606   -0.477803    1.578776 
C        0.222781    2.101454    1.942250 
C        0.321430    3.160646    0.903314 
C        1.570380    1.493674    2.050795 
C        1.771152    2.568514   -1.008588 
C        1.592941    3.093295    0.338192 
C        2.442026    2.262883    1.248754 
C        2.941604    0.477806   -1.578777 
C        3.753486   -0.350498   -0.669093 
C        3.753487    0.350512    0.669092 
C        2.940116    1.774851   -1.011308 
C        3.438545    1.661265    0.434661 
