50
0 1
C       -3.403726    0.000010   -1.773489 
C       -3.421642    1.197442   -0.904475 
C       -3.501525    0.747071    0.449023 
C       -3.421639   -1.197430   -0.904481 
C       -3.501525   -0.747081    0.449012 
C       -2.336321   -2.040094   -1.336237 
C       -2.227408    0.000014   -2.526962 
C       -1.516227   -1.269864   -2.312871 
C       -2.336334    2.040106   -1.336221 
C       -1.516230    1.269902   -2.312869 
C       -1.674070    2.797016   -0.373721 
C       -2.732108    1.425598    1.417398 
C       -1.996120    2.561277    1.006520 
C       -1.863118    0.678861    2.372393 
C       -2.732101   -1.425612    1.417385 
C       -1.863114   -0.678882    2.372393 
C       -1.674074   -2.797019   -0.373739 
C       -1.996114   -2.561287    1.006499 
C       -0.224812   -3.001514   -0.482584 
C       -0.137868   -1.282289   -2.261792 
C        0.519619   -2.343006   -1.476964 
C       -0.137862    1.282306   -2.261803 
C        0.602140    0.000016   -2.485279 
C       -0.224792    3.001522   -0.482562 
C        0.519637    2.343025   -1.476970 
C       -0.717746    2.598428    1.768348 
C       -0.572723    1.408626    2.502780 
C        0.315302    3.050645    0.889002 
C        0.706132    0.739402    2.545915 
C       -0.572714   -1.408646    2.502762 
C       -0.717739   -2.598434    1.768316 
C        0.315293   -3.050646    0.888982 
C        0.706130   -0.739413    2.545908 
C        1.597914   -2.593209    1.141403 
C        1.807418   -1.421027    1.997537 
C        1.935759   -2.257170   -1.271343 
C        2.480445   -2.485179    0.011573 
C        1.980610   -0.000005   -2.408547 
C        2.696282   -1.169197   -1.880148 
C        1.935769    2.257172   -1.271361 
C        2.696291    1.169195   -1.880148 
C        1.597934    2.593219    1.141416 
C        1.807422    1.421029    1.997547 
C        2.480462    2.485173    0.011581 
C        2.996965   -0.715982    1.440493 
C        3.468322   -1.402377    0.306853 
C        3.694246   -0.718488   -0.951914 
C        3.694248    0.718464   -0.951910 
C        2.996970    0.715973    1.440500 
C        3.468339    1.402358    0.306853 
