50
0 1
C       -4.017457   -0.421735    0.685484 
C       -3.834292   -0.590064   -0.797397 
C       -3.132029   -1.778657   -1.001587 
C       -3.199430   -1.478113    1.342851 
C       -2.743255   -2.335074    0.357478 
C       -2.206569   -0.798471    2.186689 
C       -3.487595    0.812835    1.047694 
C       -2.416253    0.620371    2.051822 
C       -3.286781    0.652890   -1.314372 
C       -3.160220    1.588655   -0.168168 
C       -2.225643    0.594500   -2.222656 
C       -1.943750   -1.819874   -1.812881 
C       -1.549565   -0.671530   -2.491913 
C       -1.352167   -2.713333    0.287019 
C       -0.897524   -2.552761   -1.076078 
C       -0.880715   -1.315439    2.285642 
C       -0.471664   -2.384024    1.359758 
C        0.120349   -0.402355    2.690191 
C       -1.334714    1.530489    2.114996 
C       -0.093384    1.025018    2.584946 
C       -2.123140    2.472096   -0.108267 
C       -1.283066    2.595673    1.126511 
C       -1.189657    1.631858   -2.222541 
C       -1.209556    2.624080   -1.253113 
C       -0.120348   -0.402326   -2.690186 
C        0.093378    1.025038   -2.584934 
C        0.471675   -2.384004   -1.359773 
C        0.880723   -1.315414   -2.285649 
C        0.897529   -2.552779    1.076062 
C        1.352176   -2.713331   -0.287049 
C        1.549565   -0.671551    2.491910 
C        1.943754   -1.819889    1.812862 
C        1.189648    1.631841    2.222556 
C        2.225641    0.594487    2.222661 
C       -0.049679    3.112882    0.750724 
C        0.049668    3.112889   -0.750698 
C        1.209544    2.624075    1.253135 
C        1.334713    1.530511   -2.114985 
C        1.283056    2.595691   -1.126490 
C        2.123131    2.472104    0.108288 
C        2.206573   -0.798451   -2.186695 
C        2.416253    0.620402   -2.051822 
C        2.743262   -2.335070   -0.357497 
C        3.132035   -1.778662    1.001569 
C        3.199434   -1.478096   -1.342866 
C        3.286778    0.652886    1.314377 
C        3.160216    1.588665    0.168180 
C        3.487596    0.812856   -1.047691 
C        3.834296   -0.590066    0.797391 
C        4.017460   -0.421723   -0.685489 
