50
0 1
C       -3.571197   -1.268599   -0.121170 
C       -2.683616   -2.080984   -0.966093 
C       -1.726632   -2.698023   -0.148214 
C       -3.045970   -1.347288    1.265170 
C       -1.941964   -2.224538    1.259224 
C       -2.898550    0.009964    1.746660 
C       -3.532309    0.061054   -0.549728 
C       -3.248079    0.916844    0.615817 
C       -2.247769   -1.209013   -2.060383 
C       -2.695826    0.174500   -1.763449 
C       -1.000064   -1.411072   -2.568530 
C       -0.387984   -2.925243   -0.642792 
C       -0.095090   -2.418220   -1.956120 
C        0.670838   -2.984338    0.282693 
C       -0.805531   -1.949006    2.083377 
C        0.454077   -2.529523    1.693699 
C       -1.786558    0.309430    2.517170 
C       -0.770593   -0.705813    2.767376 
C       -1.100279    1.602885    2.376244 
C       -2.517835    2.042057    0.403683 
C       -1.528259    2.497265    1.403536 
C       -1.846218    1.261551   -1.947046 
C       -1.934513    2.337248   -0.948269 
C       -0.180298   -0.263515   -2.991816 
C       -0.543921    1.070994   -2.627707 
C        1.220468   -2.031990   -2.279014 
C        1.168331   -0.687329   -2.940114 
C        2.029969   -2.627641   -0.083646 
C        2.282587   -2.026721   -1.331431 
C        1.647474   -1.990046    2.172684 
C        2.673239   -2.053968    1.082317 
C        0.496301   -0.004708    2.978524 
C        0.325556    1.402187    2.600591 
C        1.697285   -0.652993    2.744158 
C        1.303177    2.075155    1.820034 
C       -0.548403    3.277094    0.716401 
C       -0.887708    3.217435   -0.757993 
C        0.834517    3.048454    0.869767 
C        0.545704    1.947783   -2.366980 
C        0.363448    3.064001   -1.443909 
C        1.411723    3.054836   -0.484793 
C        2.203447    0.112922   -2.388922 
C        2.945564   -0.698660   -1.398066 
C        1.893972    1.447655   -2.129714 
C        2.399612    2.070127   -0.887198 
C        3.319018   -0.834561    1.009925 
C        2.739550    0.082720    2.050922 
C        2.505749    1.335928    1.484969 
C        3.391640   -0.093376   -0.233364 
C        3.001922    1.297079    0.071520 
