50
0 1
C        4.119758    0.222263   -0.750796 
C        4.095391   -0.841827    0.129744 
C        3.196690   -1.898662   -0.413360 
C        3.176888   -0.078305   -1.876894 
C        2.626730   -1.433226   -1.637067 
C        2.274404    0.969151   -1.969614 
C        3.569696    1.424965   -0.054723 
C        2.541456    1.940599   -0.848321 
C        3.497631   -0.406720    1.436055 
C        3.237295    1.018557    1.322130 
C        2.326816   -2.286190    0.659173 
C        2.445738   -1.287326    1.764593 
C        1.074066   -2.737890    0.318964 
C        1.247120   -1.676303   -1.912658 
C        0.590077   -2.581356   -1.041713 
C        0.907325    0.760640   -2.413207 
C        0.411366   -0.622693   -2.511998 
C        0.012234    1.796877   -2.191574 
C        1.419679    2.613272   -0.256883 
C        0.253456    2.763152   -1.070367 
C        2.046682    1.486491    1.859628 
C        1.227698    2.470323    1.134997 
C        1.227401   -0.810475    2.371887 
C        1.123653    0.585385    2.535027 
C       -0.073693   -2.573228    1.216455 
C       -0.019292   -1.576669    2.215709 
C       -0.857341   -2.696464   -0.993924 
C       -1.265294   -2.807632    0.420063 
C       -0.970390   -0.824684   -2.577243 
C       -1.617473   -1.955817   -1.881861 
C       -1.431584    1.588432   -2.268186 
C       -1.924404    0.298612   -2.520383 
C       -0.981161    3.036589   -0.478170 
C       -2.065306    2.367412   -1.249338 
C       -0.117405    2.428208    1.692475 
C       -0.187528    1.249942    2.562124 
C       -1.221983    2.773964    0.922244 
C       -1.273931   -0.951572    2.536080 
C       -1.346975    0.527047    2.641848 
C       -2.496852   -2.302184    0.835487 
C       -2.474416   -1.400520    1.960454 
C       -2.945831   -1.550344   -1.468925 
C       -3.110946   -0.106736   -1.843356 
C       -3.389383   -1.733940   -0.170089 
C       -3.015907    1.819921   -0.348767 
C       -2.481953    2.020633    1.028814 
C       -2.562840    0.982417    1.946504 
C       -3.322978   -0.207602    1.601070 
C       -3.629931    0.596160   -0.707789 
C       -3.864452   -0.392646    0.345679 
