50
0 1
C        3.779476   -1.447566   -0.673437 
C        4.111090   -0.013802   -0.669121 
C        3.737325    0.500924    0.689403 
C        3.170740   -1.743567    0.559686 
C        3.103151   -0.532582    1.415637 
C        1.913759   -2.459124    0.329642 
C        2.707909   -1.627369   -1.705685 
C        1.642053   -2.405065   -1.088326 
C        3.249121    0.632010   -1.573675 
C        2.355660   -0.365698   -2.214557 
C        3.001422    1.733903    0.480254 
C        2.613098    1.793612   -0.931606 
C        2.065531    2.086552    1.445622 
C        1.907462   -0.287086    2.194049 
C        1.535268    1.064447    2.367955 
C        0.856490   -2.388439    1.253000 
C        0.849874   -1.308767    2.260913 
C       -0.382230   -2.871367    0.735343 
C        0.315926   -2.253616   -1.550576 
C       -0.674182   -2.751265   -0.677145 
C        0.979536   -0.028821   -2.471848 
C        0.008148   -1.097208   -2.402764 
C        1.323603    2.186551   -1.310274 
C        0.547618    1.340514   -2.248946 
C        0.977256    2.899338    1.015234 
C        0.575465    2.928454   -0.335205 
C        0.149507    1.439976    2.665985 
C       -0.223199    2.586813    1.844541 
C       -0.404833   -0.935869    2.776891 
C       -0.801660    0.474340    2.847638 
C       -1.607170   -2.621847    1.452045 
C       -1.611285   -1.659735    2.437544 
C       -2.096095   -2.378895   -0.826671 
C       -2.682987   -2.298280    0.452264 
C       -1.357351   -0.778725   -2.607491 
C       -2.446924   -1.426405   -1.808725 
C       -0.818144    1.620653   -2.408784 
C       -1.716051    0.576896   -2.806550 
C       -0.898993    2.931714   -0.336325 
C       -1.361024    2.605689    1.052036 
C       -1.563942    2.448155   -1.410342 
C       -2.162065    0.621275    2.254975 
C       -2.698606   -0.663120    2.110216 
C       -3.353798   -1.088237    0.893676 
C       -2.425548    1.629128    1.247773 
C       -3.410000   -0.444906   -1.466345 
C       -3.029750    0.806757   -2.145485 
C       -2.872810    1.810258   -1.191610 
C       -3.654234   -0.116385   -0.068564 
C       -3.223610    1.275787    0.147737 
