50
0 1
C        4.462034   -0.495334    0.536497 
C        4.594955    0.469368   -0.455622 
C        4.045172    1.742745    0.039082 
C        3.704442    0.076558    1.707013 
C        3.440723    1.470821    1.403144 
C        2.616113   -0.770080    1.957111 
C        3.651008   -1.636414    0.032916 
C        2.622131   -1.882253    0.947558 
C        3.737225    0.048827   -1.622387 
C        3.268321   -1.320379   -1.358026 
C        2.976183    2.090545   -0.801924 
C        2.765925    1.049803   -1.837468 
C        2.105666    1.901831    1.389032 
C        1.804857    2.409971    0.012452 
C        1.326170   -0.235384    2.318118 
C        1.043179    1.145832    2.016010 
C        0.228262   -1.123152    2.299391 
C        1.359919   -2.435717    0.514767 
C        0.241125   -2.272801    1.357481 
C        1.994586   -1.644644   -1.749030 
C        1.097872   -2.438764   -0.885965 
C        1.405752    0.724370   -2.207459 
C        1.111257   -0.658805   -2.400644 
C        0.547158    2.258567   -0.489962 
C        0.309472    1.524539   -1.744963 
C       -0.309444    1.524368    1.745133 
C       -0.547176    2.258351    0.490093 
C       -1.111262   -0.659047    2.400574 
C       -1.405756    0.724131    2.207535 
C       -1.097828   -2.438882    0.885742 
C       -1.994573   -1.644861    1.748901 
C       -0.241081   -2.272648   -1.357690 
C       -0.228212   -1.122916   -2.299493 
C       -1.359873   -2.435698   -0.515004 
C       -1.043172    1.146030   -2.015910 
C       -1.326145   -0.235124   -2.318128 
C       -1.804845    2.410085   -0.012245 
C       -2.105658    1.902026   -1.388907 
C       -2.765919    1.049677    1.837629 
C       -2.976174    2.090562    0.802163 
C       -3.268345   -1.320540    1.357920 
C       -3.737246    0.048663    1.622440 
C       -2.622104   -1.882202   -0.947751 
C       -2.616084   -0.769928   -1.957224 
C       -3.651033   -1.636482   -0.033082 
C       -3.440755    1.470951   -1.403038 
C       -4.045217    1.742772   -0.038889 
C       -4.595033    0.469303    0.455705 
C       -3.704474    0.076698   -1.707037 
C       -4.462096   -0.495340   -0.536559 
