50
0 1
C       -4.171545   -0.031217    0.765644 
C       -3.481447    1.082398    1.275576 
C       -3.139401    1.981246    0.179686 
C       -4.073067    0.019163   -0.744043 
C       -3.467429    1.226022   -1.093341 
C       -3.439725   -1.194861   -1.174511 
C       -3.438486   -1.242856    1.190414 
C       -3.105090   -1.991516    0.073502 
C       -2.355092    0.620611    2.114019 
C       -2.336116   -0.814434    2.072917 
C       -1.128471    1.346724    2.148105 
C       -1.864827    2.494824    0.064126 
C       -0.883063    2.392085    1.143009 
C       -2.272203    1.267341   -1.909613 
C       -1.372897    2.234837   -1.315475 
C       -2.277014   -1.177009   -1.966826 
C       -1.696236    0.065816   -2.433782 
C       -1.771170   -2.513254   -0.098173 
C       -1.326134   -2.166526   -1.402602 
C       -1.093317   -1.519524    2.071146 
C       -0.824186   -2.490456    0.997015 
C       -0.004841    0.637333    2.624240 
C        0.013196   -0.814819    2.584110 
C        1.358497    1.109162    2.423895 
C        0.420286    2.725024    0.833817 
C        1.558425    2.215118    1.604677 
C       -0.006973    2.268014   -1.605965 
C        0.880515    2.799485   -0.591747 
C       -0.303967    0.084669   -2.699090 
C        0.512142    1.235230   -2.441118 
C        0.061058   -2.164298   -1.723956 
C        0.561817   -1.099274   -2.510423 
C        0.494472   -2.773450    0.665216 
C        0.939362   -2.741029   -0.749926 
C        1.392920   -1.239500    2.355525 
C        2.257914   -0.053372    2.337758 
C        1.622253   -2.289581    1.472472 
C        3.393120   -0.012920    1.518858 
C        2.727253    2.238406    0.751012 
C        2.237695    2.532953   -0.643595 
C        3.613412    1.183464    0.713067 
C        1.916838    0.816277   -2.342044 
C        1.929203   -0.658321   -2.394283 
C        2.797651    1.508116   -1.522949 
C        3.762031    0.744376   -0.731803 
C        2.313134   -2.443804   -0.790417 
C        2.791580   -2.232336    0.623888 
C        3.652453   -1.152822    0.650442 
C        2.839044   -1.380148   -1.597382 
C        3.786427   -0.631366   -0.771075 
