50
0 1
C       -3.780195    1.449811   -0.451414 
C       -3.725843    0.172440   -1.218200 
C       -3.915841   -0.861436   -0.288589 
C       -3.576302    1.082721    1.004310 
C       -3.705966   -0.279859    1.117098 
C       -2.342287    1.730107    1.454948 
C       -2.722654    2.241581   -0.847490 
C       -1.991588    2.653276    0.366243 
C       -2.517902    0.198969   -2.021260 
C       -1.911308    1.532759   -1.885282 
C       -1.640479   -0.916267   -2.080448 
C       -3.103553   -1.996081   -0.383092 
C       -2.035249   -2.073771   -1.317596 
C       -2.656674   -1.064419    1.756173 
C       -2.507662   -2.257043    0.981093 
C       -1.298925    1.024210    2.105149 
C       -1.474291   -0.427251    2.278570 
C        0.068843    1.575907    2.054307 
C       -0.706581    3.014630    0.208396 
C        0.263367    2.714172    1.249737 
C       -0.543961    1.732771   -1.953068 
C       -0.012125    2.805482   -1.105674 
C       -0.209590   -0.677250   -2.322155 
C        0.372857    0.631274   -2.283046 
C        0.672440   -1.800254   -2.099135 
C       -0.993552   -2.898357   -0.667988 
C       -1.258937   -2.870636    0.792030 
C        0.281651   -2.845299   -1.110085 
C       -0.301305   -1.221012    2.329167 
C       -0.201389   -2.472037    1.620178 
C        1.265006    0.735433    2.297277 
C        1.057643   -0.653503    2.393929 
C        2.569648    1.144886    1.816152 
C        1.540387    3.019771    0.635848 
C        1.323680    2.934755   -0.872272 
C        2.662436    2.321887    0.943549 
C        1.828046    0.818955   -2.085887 
C        2.309588    1.984959   -1.382313 
C        3.296658    1.867711   -0.358597 
C        2.045495   -1.633374   -2.010472 
C        2.667279   -0.331828   -1.977034 
C        1.407334   -2.985272   -0.164595 
C        1.175914   -2.659431    1.170128 
C        1.983478   -1.618923    1.815124 
C        2.562228   -2.428530   -0.824927 
C        3.490227    0.194233    1.304376 
C        3.924323    0.643521   -0.088393 
C        3.715112   -0.409168   -0.972321 
C        3.182873   -1.197344    1.223884 
C        3.467648   -1.647877   -0.146330 
