50
0 1
C        3.810867   -0.147515   -0.022387 
C        3.422281   -0.471174    1.262416 
C        2.724976   -1.800608    1.246608 
C        3.399812   -1.283345   -0.932541 
C        2.679093   -2.265066   -0.126278 
C        2.805944   -0.740653   -2.054915 
C        3.369156    1.106042   -0.638146 
C        2.775032    0.754942   -1.931288 
C        2.707358    2.030851    0.142110 
C        2.603740    0.427795    2.058689 
C        2.403142    1.733422    1.567082 
C        1.565079   -1.696962    2.022423 
C        1.473055   -0.308523    2.573057 
C        0.375025   -2.380828    1.618002 
C        1.459314   -2.745374   -0.598758 
C        0.349922   -2.949982    0.322641 
C        1.488595   -1.156005   -2.494205 
C        0.874790   -2.220526   -1.846852 
C        1.523397    1.208620   -2.323940 
C        0.694130    0.040252   -2.762292 
C        1.528377    2.751471   -0.406581 
C        0.891408    2.304359   -1.617009 
C        1.180501    2.368787    1.888566 
C        0.708157    3.114662    0.685209 
C        0.207003    0.301807    2.764112 
C        0.061566    1.683693    2.431468 
C       -0.874301   -1.901408    2.152915 
C       -0.978913   -0.494094    2.641295 
C       -2.076008   -2.236661    1.543698 
C       -0.890106   -2.906520   -0.462382 
C       -0.573242   -2.246817   -1.733105 
C       -2.105559   -2.687074    0.154501 
C       -0.691426    0.029818   -2.660201 
C       -1.380515   -1.194922   -2.224005 
C       -0.503576    2.390451   -1.700268 
C       -1.316785    1.317116   -2.359282 
C       -0.710050    3.039311    0.653207 
C       -1.165870    2.171501    1.761442 
C       -1.308472    2.889006   -0.599343 
C       -2.222132    0.044485    2.229460 
C       -3.002544   -1.059340    1.648277 
C       -2.308755    1.370643    1.638674 
C       -3.077664   -1.878099   -0.545811 
C       -2.720773   -1.115871   -1.676094 
C       -3.698332   -0.928062    0.472933 
C       -2.610621    1.386796   -1.872161 
C       -2.601669    2.261678   -0.647291 
C       -3.122955    1.527695    0.431572 
C       -3.344734    0.207175   -1.510906 
C       -3.796718    0.353053   -0.164314 
