50
0 1
C       -4.093265   -1.202184   -0.159146 
C       -3.211990   -1.999703    0.720515 
C       -2.852099   -1.243037    1.830847 
C       -4.153708    0.172445    0.428853 
C       -3.428368    0.155876    1.657969 
C       -3.732674    1.091386   -0.560925 
C       -3.420490   -1.088595   -1.408277 
C       -3.254543    0.301660   -1.757535 
C       -2.096177   -2.477500   -0.090936 
C       -2.189802   -1.872188   -1.390342 
C       -0.803921   -2.638571    0.506310 
C       -1.470471   -1.089772    2.245141 
C       -0.436480   -1.931111    1.690899 
C       -2.374320    1.062212    1.910979 
C       -1.201478    0.288368    2.405863 
C       -2.730781    2.071092   -0.285160 
C       -2.109257    2.138645    1.002328 
C       -2.019676    0.813942   -2.175627 
C       -1.833775    2.088086   -1.459523 
C       -0.995302   -1.381096   -2.035355 
C       -0.842956   -0.010438   -2.389759 
C        0.221435   -2.883715   -0.450758 
C        0.190494   -2.113584   -1.728248 
C        1.530761   -2.948468   -0.016658 
C        0.951076   -1.559374    1.921082 
C        1.936505   -2.317074    1.222119 
C        0.148311    0.789151    2.352382 
C        1.263963   -0.173770    2.286996 
C       -0.796987    2.702002    1.062070 
C        0.293863    2.090260    1.869218 
C       -0.590926    2.637974   -1.383328 
C       -0.195406    3.189884   -0.111555 
C        0.502330    0.597860   -2.357862 
C        0.592504    1.945335   -1.952632 
C        1.490918   -1.649491   -2.007294 
C        2.404046   -2.383746   -1.111301 
C        1.715806   -0.233018   -2.238242 
C        3.260575   -1.787763    0.985145 
C        3.505038   -1.824343   -0.539498 
C        2.555672    0.332813    2.012559 
C        3.582688   -0.515015    1.416946 
C        1.569044    2.489686    1.258350 
C        1.275554    3.058049   -0.010675 
C        1.757960    2.421996   -1.209404 
C        2.686427    1.655072    1.364619 
C        2.928816    0.316100   -1.745010 
C        3.874658   -0.481186   -0.930751 
C        4.175305    0.234316    0.256371 
C        2.898759    1.637418   -1.106097 
C        3.522343    1.523113    0.204340 
