50
0 1
C       -4.208100   -0.155716   -0.230022 
C       -3.890909   -1.342524    0.566524 
C       -2.999530   -2.188655   -0.278167 
C       -3.443549   -0.212858   -1.417839 
C       -2.683265   -1.476014   -1.467666 
C       -2.698209    1.041507   -1.611727 
C       -3.680591    1.011459    0.534433 
C       -2.968436    1.849409   -0.414173 
C       -3.107771   -0.935780    1.669421 
C       -2.960025    0.534843    1.655568 
C       -1.906776   -2.620531    0.565177 
C       -1.887122   -1.751525    1.768057 
C       -0.715229   -2.889989   -0.054742 
C       -1.344258   -1.475102   -1.988065 
C       -0.469771   -2.431873   -1.421602 
C       -1.424063    1.045986   -2.203682 
C       -0.743014   -0.237139   -2.507634 
C       -0.594691    2.182738   -1.897264 
C       -1.965389    2.655712    0.095224 
C       -0.908316    3.006699   -0.796835 
C       -1.691284    1.111118    2.020577 
C       -1.346951    2.325695    1.397257 
C       -0.684870   -1.231717    2.216907 
C       -0.602258    0.234859    2.494709 
C        0.531623   -2.754715    0.685010 
C        0.552337   -1.946877    1.840060 
C        0.968788   -2.369463   -1.582346 
C        1.610517   -2.719571   -0.298023 
C        0.638689   -0.223967   -2.723857 
C        1.503340   -1.356036   -2.365517 
C        0.872752    2.111409   -1.960379 
C        1.454415    0.995400   -2.495897 
C        0.336855    3.218611   -0.004206 
C        0.052291    2.773003    1.323381 
C        1.441691    2.713631   -0.728086 
C        0.656651    0.793705    2.648459 
C        1.040615    2.049346    1.971222 
C        1.832557   -1.405892    2.188908 
C        1.864705   -0.015891    2.651616 
C        2.849068   -2.197602    0.054908 
C        2.965049   -1.613382    1.375356 
C        2.826409   -0.870962   -2.018941 
C        2.759308    0.625555   -2.003801 
C        3.496833   -1.289497   -0.886056 
C        2.532772    2.092122   -0.035646 
C        2.351053    1.873038    1.363758 
C        2.913920    0.676767    1.995622 
C        3.676315   -0.275637    1.220717 
C        3.293759    1.113829   -0.800206 
C        3.902061   -0.047525   -0.110491 
