50
0 1
C       -4.341951    0.103102   -0.245198 
C       -3.945349    1.413348   -0.166263 
C       -2.989766    1.702379   -1.287578 
C       -3.653692   -0.532312   -1.425279 
C       -2.729752    0.478618   -2.014482 
C       -3.130869   -1.725450   -0.992369 
C       -3.835231   -0.619705    0.985155 
C       -3.249213   -1.815097    0.525623 
C       -3.160399    1.616341    1.096763 
C       -3.035524    0.291198    1.755434 
C       -1.895878    2.374043   -0.731194 
C       -2.004975    2.295731    0.767692 
C       -0.615589    2.231958   -1.310108 
C       -1.394172    0.140629   -2.339022 
C       -0.334635    1.137253   -2.185752 
C       -1.775634   -2.112700   -1.314143 
C       -0.971962   -1.267795   -2.179317 
C       -1.995529   -2.231098    1.010875 
C       -1.173563   -2.657777   -0.154085 
C       -1.750148   -0.101021    2.243354 
C       -1.316915   -1.461807    1.999323 
C       -0.788947    2.100531    1.522239 
C       -0.689294    0.921005    2.367255 
C        0.443977    2.799678   -0.518062 
C        0.362387    2.655596    0.973062 
C        1.747440    2.655597   -0.919875 
C        1.077644    0.798129   -2.424068 
C        2.115248    1.638662   -1.906034 
C        0.367690   -1.581756   -2.220818 
C        1.400823   -0.587954   -2.559976 
C        0.238603   -2.821596   -0.056281 
C        0.978381   -2.523381   -1.249935 
C        0.065626   -1.799141    2.191381 
C        0.854589   -2.574320    1.182203 
C        0.613213    0.533900    2.735863 
C        0.925694   -0.880945    2.771799 
C        1.690698    2.305054    1.429389 
C        2.609012    2.453894    0.298831 
C        1.824342    1.208909    2.269592 
C        3.362355    1.087512   -1.439567 
C        3.565056    1.520508    0.001048 
C        2.644781   -1.109795   -2.109097 
C        2.349906   -2.253448   -1.176783 
C        3.601446   -0.286623   -1.488530 
C        2.238588   -2.136615    1.259540 
C        2.302869   -1.076462    2.239550 
C        2.870068    0.180678    1.965154 
C        3.707431    0.303027    0.811963 
C        3.007922   -1.990682    0.082096 
C        3.813201   -0.799799   -0.071366 
