50
0 1
C       -4.458307    0.234784    0.610847 
C       -4.484932   -0.071308   -0.838341 
C       -3.980166   -1.348522   -1.022581 
C       -3.753048   -0.927465    1.292768 
C       -3.482314   -1.900063    0.293800 
C       -2.659576   -0.411245    2.057565 
C       -3.633449    1.346617    0.793498 
C       -2.658371    1.064165    1.865245 
C       -3.522786    0.887979   -1.496309 
C       -3.053672    1.771284   -0.515780 
C       -2.788017   -1.291266   -1.914774 
C       -2.511975    0.099073   -2.234625 
C       -2.140177   -2.323346    0.102368 
C       -1.754429   -2.025905   -1.313968 
C       -1.383364   -1.043786    2.060715 
C       -1.136521   -2.054739    1.066425 
C       -0.212661   -0.274908    2.506721 
C       -1.483014    1.738898    1.863230 
C       -0.253682    1.132684    2.390100 
C       -1.693529    2.249429   -0.548566 
C       -1.064395    2.532708    0.684368 
C       -1.179799    0.525444   -2.273439 
C       -0.829493    1.803432   -1.633361 
C       -0.410152   -1.694827   -1.599864 
C       -0.114992   -0.472891   -2.260730 
C        0.238816   -2.351238    0.682902 
C        0.600569   -2.293385   -0.741503 
C        1.071239   -0.850331    2.416923 
C        1.248566   -2.078113    1.603608 
C        2.281613   -0.071840    2.279566 
C        0.884924    1.859939    1.886177 
C        0.355641    2.686156    0.779327 
C        2.183073    1.291833    1.839973 
C        0.518989    2.144974   -1.589471 
C        1.100880    2.744892   -0.395626 
C        1.283053   -0.082122   -2.376079 
C        1.575823    1.298218   -2.190878 
C        1.917589   -2.159621   -1.140502 
C        2.291720   -1.039287   -2.037144 
C        2.631415   -2.135223    1.230533 
C        3.297394   -0.951327    1.708981 
C        3.007348   -2.320677   -0.161310 
C        3.616165   -0.619307   -1.646479 
C        4.217468   -0.496430    0.677302 
C        4.055298   -1.442155   -0.480626 
C        3.067011    1.718350    0.759221 
C        2.491002    2.399511   -0.333229 
C        2.822582    1.673213   -1.603174 
C        4.067303    0.793048    0.208524 
C        3.817339    0.734692   -1.312325 
