60

 C     -0.5971981724     -4.1484203946     0.5669786147
C     -1.2593023413     -4.0959947179     -0.6607227998
C     -2.426183652     -3.2132073882     -0.4987574508
C     -1.3607698468     -3.3129244641     1.5354030274
C     -2.4463142206     -2.7111684216     0.8499690029
C     -0.4572954122     -2.5500133987     2.2781232282
C     0.7758292874     -3.839819821     0.6950305633
C     0.8828368896     -2.9935776145     1.8937944971
C     1.538319842     -3.4540402913     -0.4776118588
C     -0.5503788785     -3.69049488     -1.8212159541
C     0.8211729345     -3.2911510863     -1.7167413096
C     -2.4072625432     -2.2871000676     -1.5657830413
C     -1.2866950921     -2.6073854799     -2.4135816614
C     -2.7621979042     -0.9296332852     -1.3459881494
C     -2.7574342668     -1.3569454871     1.1101524478
C     -3.2406966743     -0.556982024     -0.0185175065
C     -0.7139903511     -1.1688851016     2.5785107758
C     -1.9801998562     -0.6487343504     2.1271054962
C     0.4266863143     -0.2459556778     2.7458903762
C     1.9335665974     -2.1410699052     2.0822749561
C     1.726043225     -0.7627160632     2.5523641667
C     2.6370060676     -2.5618240491     -0.2646447877
C     2.9517659184     -2.1018056158     1.0752578997
C     2.9250266383     -1.4691309191     -1.1450719419
C     0.9610472092     -2.0313859543     -2.4327739528
C     -0.3778178742     -1.5762665292     -2.7614858298
C     1.9593717022     -1.0891695419     -2.139713866
C     -2.0698736047     0.0974503335     -2.1214487361
C     -0.7450059278     -0.2078963854     -2.6598308521
C     -2.3812106728     1.448757789     -1.8307497873
C     -3.5288832026     0.7976679936     0.2172557265
C     -3.2805345984     1.7681691897     -0.7931751513
C     -2.1839886565     0.7563979016     2.2542553122
C     -3.1444134376     1.4045726046     1.4684122628
C     0.2456285395     1.2123845773     2.6045730795
C     -1.0784365489     1.6838654669     2.5275639325
C     1.3320452961     2.073311437     2.0809481337
C     2.7521259932     0.0447406845     1.9372760831
C     3.4960889686     -0.8086885191     1.0411921764
C     3.5759376854     -0.4343853861     -0.3448317195
C     2.5639023024     1.4188077852     1.6290151441
C     3.4227753     0.8768450274     -0.6578192837
C     3.1877081001     1.8698789464     0.4036419126
C     1.6763218722     0.3398430028     -2.3767862686
C     0.3212823828     0.800789158     -2.6136515131
C     2.6093891798     1.2789553527     -1.813325448
C     -1.3747917842     2.5032091027     -1.9370227379
C     -0.0427018441     2.2014807116     -2.3242161798
C     -2.7843312473     2.9912782605     -0.1629041052
C     -2.6743043053     2.7526860151     1.2043597831
C     -1.4130564488     2.9430399309     1.8876895813
C     -1.6562515729     3.4740358302     -0.8907931221
C     0.9721232568     3.31989957     1.4731661031
C     -0.4188014136     3.6782312032     1.2690481733
C     -0.5856927932     4.0425744868     -0.1620174743
C     2.6954103875     3.0106862698     -0.2389073247
C     2.2659984965     2.6094864637     -1.6112144081
C     0.9697327161     3.1192431442     -1.8476656414
C     1.6813740301     3.7672030203     0.3031092571
C     0.6794981115     4.001281461     -0.7433923503


