60

 C     0.4726394122     -4.1901717726     0.5267502614
C     0.3941658653     -4.0149409518     -0.8445631397
C     -0.9938354715     -3.7010245959     -1.21688145
C     -0.9108920625     -3.987083153     1.0489678871
C     -1.7724109003     -3.5575282161     -0.0440021733
C     -0.8085570553     -3.2197343665     2.1737367773
C     1.3809678971     -3.4048850081     1.3079083729
C     0.6110480606     -2.8951850326     2.4203570027
C     2.3058618123     -2.5282982321     0.6766691145
C     1.2594549716     -3.1111982082     -1.517218837
C     2.2944358916     -2.4757410782     -0.7920395856
C     -0.9379077801     -2.6835097084     -2.1979968858
C     0.4273403176     -2.2959744086     -2.422012606
C     -1.9155202234     -1.6775880315     -2.1675735851
C     -2.6268414786     -2.4004351019     0.1177195845
C     -2.8373379863     -1.5984350578     -1.0470346618
C     -1.6024591525     -2.0356666017     2.3677626023
C     -2.5956144229     -1.6692538993     1.402039888
C     0.6629764062     -1.5649269472     2.7913584354
C     -0.7176959765     -1.0392726713     2.8827162909
C     2.6637473595     -1.2779856823     1.3799535006
C     1.7249197839     -0.7082237328     2.3490621365
C     3.5245658978     -0.3735227027     0.6962449551
C     2.8439446276     -1.3180520711     -1.4410907596
C     3.6668084155     -0.4605960171     -0.7517161672
C     0.7469947059     -0.9451667262     -2.7466643956
C     2.0475546211     -0.519953455     -2.4047748431
C     -1.6409879568     -0.3591400205     -2.6536715905
C     -0.2992255714     0.0763505909     -2.8740325075
C     -3.2792719108     -0.23079796     -0.9777632464
C     -2.615857505     0.518125975     -2.0513183718
C     -2.9690656077     -0.2999915435     1.4244271702
C     -3.457865127     0.39869624     0.2465091074
C     -0.9817554896     0.3342013872     2.764991736
C     -2.2450495953     0.6738796713     2.1923866105
C     1.5091130554     0.7253006442     2.4537790325
C     0.1463475338     1.2734102684     2.6725928019
C     3.4678433503     1.0010215392     0.9950136534
C     2.4595687394     1.5605900838     1.7937659176
C     3.4908750294     0.8862783654     -1.3153954489
C     2.389600332     0.8564653687     -2.2543143828
C     3.4681509528     1.7773535451     -0.2788485663
C     0.0290369566     1.491596715     -2.6560450831
C     1.3837255616     1.8764322507     -2.2414204495
C     -2.3656017194     1.8541707855     -1.933214885
C     -1.0517188557     2.3810482857     -2.3287939499
C     -3.1994054339     1.8182814869     0.3856010264
C     -2.4699321881     1.9847740301     1.6227293355
C     -2.8086024442     2.5825511931     -0.7380859922
C     -0.1527119396     2.5900384786     2.2667574669
C     -1.4788197688     2.9645412671     1.7521181155
C     2.0295116044     2.8086621007     1.1523996846
C     2.5073588093     2.8131304368     -0.2147130891
C     1.5511210625     2.9900018712     -1.2786057097
C     0.8035728623     3.356635021     1.4705456915
C     -0.8376439697     3.5481457283     -1.5689755871
C     -1.9143228459     3.6606580341     -0.5677292451
C     -1.3035853206     3.9006612661     0.6765150634
C     0.4131795118     3.7824641729     -0.9349396354
C     0.1140641519     4.0588162512     0.4500577078


