60

 C     0.4255895989     -4.2842756854     0.7445012352
C     -0.2246299839     -3.6925631621     1.8022437908
C     0.7024619633     -2.7455502059     2.4571813764
C     1.8181830894     -3.7655599603     0.7341760314
C     1.9286498199     -2.7154948877     1.7569609099
C     2.1033561523     -3.4354511745     -0.5665170724
C     -0.1337835491     -4.1520543628     -0.5994509872
C     0.9234014012     -3.666195404     -1.428337323
C     -1.3891912226     -3.5592603582     -0.7579686081
C     -1.4954722239     -3.0365645225     1.6580647722
C     -2.1342562278     -3.0762552847     0.4131268872
C     -0.00055981     -1.5674983065     2.7366364051
C     -1.3916710918     -1.7393091056     2.3155664637
C     0.638534538     -0.3039339283     2.6326534226
C     2.5320691684     -1.4560738014     1.4743527783
C     1.9866182274     -0.2444136493     2.0933265876
C     2.6902526502     -2.1815153886     -0.9041163401
C     3.1173299742     -1.279405391     0.137809666
C     0.7765652851     -2.5174598701     -2.2194573334
C     1.9366378895     -1.6480424615     -1.9913247865
C     -1.5889187109     -2.543841853     -1.7763276968
C     -0.4939519311     -1.9006950334     -2.4283204376
C     -2.9568968749     -1.9681098853     0.0228162593
C     -2.7244620268     -1.745233712     -1.3875476216
C     -2.1942569212     -0.6406730702     1.9652830692
C     -3.1587572958     -0.8325310278     0.8653164467
C     -0.244937454     0.8521906468     2.6008598437
C     -1.6662370044     0.6908526902     2.2717246865
C     0.3751584241     2.112508514     2.4184522256
C     2.5349452236     1.0600222184     1.727405923
C     1.7622067356     2.2323414628     2.0601395723
C     3.4154639233     -0.0003017172     -0.3016182112
C     3.3963359967     1.1535716199     0.5820636801
C     1.9061148624     -0.2562978092     -2.2453138998
C     2.9418915565     0.4656013198     -1.5943007868
C     -0.5509215021     -0.4311865744     -2.6978330196
C     0.6448122884     0.4132546727     -2.5988378132
C     -2.9149718004     -0.4913007299     -1.9417807297
C     -1.7952085148     0.2045318589     -2.5974124157
C     -3.6932687055     0.3265046239     0.2299881404
C     -3.6367114312     0.4541115989     -1.1934222066
C     -2.3676171843     1.8207124748     1.7271582764
C     -3.3717372475     1.6170257132     0.7493916087
C     -0.3684046729     3.2377668647     1.8272927567
C     -1.6599953146     3.0374294571     1.3851778252
C     1.8747761126     3.4371786748     1.2647383109
C     0.5255889762     3.9676534641     1.0283008008
C     3.3581058537     2.3108111114     -0.2551667047
C     2.9049410235     1.864684009     -1.544731577
C     2.5870734882     3.4448554805     0.0771043394
C     0.5204016878     1.8382603003     -2.3349632596
C     0.3275409589     3.9681256668     -0.3870824598
C     1.6996618913     2.5795481369     -1.8872284866
C     1.5886893877     3.6684739744     -0.9938909336
C     -1.9257089994     1.6160365541     -2.2841859603
C     -3.1210760867     1.7806692671     -1.5101641134
C     -3.1092912617     2.5450724169     -0.3493768134
C     -1.9667434148     3.3136295552     -0.0195454406
C     -0.782118351     2.420642704     -2.0168634564
C     -0.8816013331     3.442981571     -0.9467276964


