60

 C     0.4727042428     4.8044862197     0.2972160381
C     1.2799124338     4.489259283     -0.8427257974
C     0.4052786145     3.7643455035     -1.8107453451
C     -0.8328470322     4.4015408194     0.025988253
C     -0.9153076224     3.7613961759     -1.3054903546
C     -1.3465485394     3.6443810491     1.1674867618
C     0.9047001339     3.9221136725     1.4127230793
C     -0.1965319049     3.1944219529     1.9568511968
C     2.2233588359     3.5494398547     -0.4543204582
C     2.0352713168     3.1992162421     0.9791422556
C     0.985314344     2.5217786808     -2.1847785528
C     2.2363140255     2.442629655     -1.401614382
C     0.2060979166     1.3397873625     -2.3617631091
C     -1.7523885962     2.6289093271     -1.4884883534
C     -1.2303037271     1.4132122051     -2.1304591397
C     -2.350860235     2.7777770532     0.9348577009
C     -2.7484516538     2.4526461771     -0.458822641
C     -2.4738031404     1.5398781214     1.709269048
C     -0.0886737952     1.8004381522     2.3019171282
C     -1.289755414     0.9409809806     2.268197674
C     2.1988993105     1.863527531     1.3581576304
C     1.1919614686     1.1581337682     2.1402680439
C     2.706213017     1.2382976868     -0.9953650319
C     2.9990619621     1.0567152405     0.4494366896
C     0.8932645267     0.0410954866     -2.2801598668
C     2.2629546837     0.037681006     -1.730098833
C     0.1744776003     -1.1953538799     -2.3446766864
C     -1.961292735     0.1628772909     -2.0264934745
C     -1.298532626     -1.1347286135     -2.2479751271
C     -3.4216688453     1.2648192353     -0.3785789674
C     -3.3987397422     0.7472700311     1.0179849695
C     -3.1436831437     0.1581263129     -1.215697259
C     -3.3325078066     -0.627987159     0.9829006632
C     -3.4749955757     -1.0123338928     -0.4352713064
C     -1.1882233631     -0.5152471604     2.2615676236
C     -2.3100523893     -1.3105670964     1.7441577307
C     1.3116870681     -0.2870077667     2.2915896248
C     0.139564284     -1.1458799464     2.3520567158
C     3.34938029     -0.1859187516     0.8582887176
C     2.5747182136     -0.8617028393     1.9203306772
C     2.9063388555     -1.1362223721     -1.3975820632
C     3.7047234397     -1.1804748037     -0.1395029901
C     0.8837821893     -2.4609885253     -2.0184213998
C     2.2450077053     -2.4090122156     -1.5679045852
C     0.1374012458     -3.5855649715     -1.5571884337
C     -1.9960380121     -2.3144634884     -1.8589052911
C     -3.0490803166     -2.2328303303     -0.8342017749
C     -1.2903846139     -3.5241708707     -1.5553021997
C     -2.1377817092     -2.6727139824     1.3775095259
C     -2.7518971771     -3.2048194172     0.1966673965
C     -1.8118373691     -4.1101292551     -0.3590749569
C     0.2939597567     -2.5695157439     2.0223740115
C     0.5059074739     -4.226611677     -0.2923666277
C     -0.8330666366     -3.3298170463     1.5416978263
C     -0.6967216427     -4.2984669155     0.5100636308
C     2.7170456576     -2.2397941098     1.6712833485
C     3.4867285133     -2.4118694746     0.4195454418
C     2.6455277051     -3.2027458209     -0.4469667798
C     1.5790177129     -3.0709761916     1.6109418978
C     1.6654010212     -3.8592673593     0.3404704864


