60

 C     0.2802195491     -4.0273899221     -0.9439320194
C     0.9676835764     -4.0281966061     0.260671151
C     2.2266703927     -3.3198788894     0.0795371475
C     1.0468716638     -3.213713631     -1.88958602
C     2.2539444574     -2.76108263     -1.2386035126
C     0.1658163096     -2.2864886812     -2.4461121367
C     -1.095104425     -3.6318122859     -0.994129716
C     -1.2132044935     -2.5798862863     -1.9756943461
C     -1.7936273877     -3.4933886726     0.2304209872
C     0.3448662055     -3.527269968     1.4727720475
C     -1.0257460375     -3.324900524     1.4880311625
C     2.4262755155     -2.4794589002     1.1934443742
C     1.217691351     -2.5191664676     2.0397078776
C     3.0991263186     -1.2808532633     0.9994688941
C     2.7026718487     -1.4309289857     -1.4435181062
C     3.3433833092     -0.7927987661     -0.3292645956
C     0.5805981337     -0.9412746727     -2.7284208624
C     1.9377657113     -0.5627795837     -2.3517960148
C     -0.4704141696     0.0682390612     -2.8843283805
C     -2.1752576147     -1.5526260176     -1.8692249789
C     -1.8434509149     -0.2129443825     -2.4022478005
C     -2.8567702219     -2.5877980205     0.2611441456
C     -3.1093843399     -1.658097714     -0.7739346934
C     -1.5656197655     -2.1679630485     2.1770619129
C     -2.7984891509     -1.8250157124     1.5110620514
C     0.7199262894     -1.3212354464     2.6057346022
C     -0.7434431905     -1.1228902859     2.6613549479
C     2.8041787492     -0.1422982977     1.8405857577
C     1.6088559512     -0.1487043328     2.6261508039
C     3.4745547451     0.6461625217     -0.229816954
C     3.2391816923     1.0435983571     1.1447864153
C     2.2599839408     0.8268811547     -2.340796547
C     3.0291574261     1.4461491195     -1.267304898
C     -0.0633353779     1.4211048323     -2.9697995725
C     1.3015511741     1.7616073169     -2.7678753485
C     -0.8403846924     2.5113634665     -2.4039535801
C     -2.6203270356     0.878128054     -1.9643039895
C     -2.096592187     2.2381741347     -1.9204839511
C     -3.5852203403     -0.450944642     -0.129137933
C     -3.2490031953     -0.5371520365     1.3108396891
C     -3.4681280729     0.7483704442     -0.766701453
C     -1.31049688     0.2515153776     2.6703159924
C     -2.5746100056     0.5569014129     1.9622885354
C     1.0337081644     1.1272596123     2.9041173043
C     -0.4272812823     1.322351179     2.8807251688
C     2.6275511288     2.2719270276     1.4185412682
C     1.6320556316     2.3017543053     2.414426318
C     2.4118204499     2.7513619965     -0.9798282405
C     1.3726079957     2.9548199382     -1.9571270217
C     0.0730660374     3.3815678004     -1.6443475746
C     2.1748467222     3.1418653537     0.3264593155
C     -0.6886619369     2.6518982161     2.3408625164
C     0.5644143866     3.2077330047     1.9730194717
C     -0.2417822749     3.7621505417     -0.2804582386
C     0.8437254623     3.6861925243     0.6862193242
C     -2.5178246841     2.8600609649     -0.6855936227
C     -3.2879076387     1.9259554785     0.0303761592
C     -2.7712258604     1.8381937424     1.3812509931
C     -1.5579618601     3.4798062899     0.1909649659
C     -1.7735153538     2.8658454437     1.4959810071


