60

 C     1.8268284523     -3.7898659581     -1.0537248915
C     1.7798263832     -3.72459543     0.4165741774
C     0.4324457857     -3.7782520338     0.8383924258
C     0.5129695859     -3.7824912166     -1.5356046057
C     -0.3698037042     -3.9423300555     -0.4001310075
C     0.3286919713     -2.6188627214     -2.3940191884
C     2.4859575319     -2.625046194     -1.5044840228
C     1.5742089102     -1.8863239212     -2.3680052023
C     2.6260612219     -2.6570437471     0.8342196319
C     3.0670094552     -1.9506430468     -0.3869850065
C     2.2199991314     -1.8821399385     1.9177261678
C     -0.055496595     -2.8955733823     1.8803018939
C     0.9064963543     -2.0433864136     2.486843141
C     -1.4631646499     -2.4414610238     1.8429389188
C     -1.6092332441     -3.3851061378     -0.4800876366
C     -2.2660890399     -2.819137097     0.7085966168
C     -0.9003832676     -1.9281617555     -2.4036403437
C     -1.9625691133     -2.5320733864     -1.6240050898
C     -0.9164679845     -0.4712363721     -2.6081624361
C     1.5865301773     -0.488354592     -2.3650454335
C     0.3469572984     0.2475042353     -2.6478412301
C     3.2016599465     -0.5590453468     -0.41109249
C     2.6471351568     0.1631785791     -1.5610459362
C     2.568797264     -0.4810302283     1.9669740616
C     3.2168349139     0.1584811727     0.8727292814
C     0.5325198365     -0.7346390798     3.0032216837
C     1.5595436326     0.2256728305     2.7072128774
C     -1.8105298683     -1.193741394     2.4567937593
C     -0.7820894559     -0.3241886346     2.9963567862
C     -2.864048379     -0.3395243378     1.9599544187
C     -3.2794640069     -1.97415967     0.2399397156
C     -3.0297498593     -1.7499640613     -1.1957865161
C     -3.5702918371     -0.7189051199     0.8085577257
C     -2.139547565     0.2713812161     -2.2711368647
C     -3.1660624141     -0.3850791925     -1.494687954
C     -3.6979708053     0.25117894     -0.2861769542
C     -2.0758479766     1.6827257403     -2.127061191
C     0.3734961722     1.7083262947     -2.5209997084
C     -0.8333301044     2.4112644938     -2.2958071379
C     2.6986781601     1.5533956435     -1.5354872258
C     1.5939112414     2.3586046291     -2.0909816711
C     3.1790866156     1.5600422399     0.8622803549
C     3.2425230509     2.2561952176     -0.4034945598
C     1.2662383048     1.6017554426     2.4464712647
C     2.2372025938     2.2974238447     1.6853357321
C     -1.1183090261     1.0634377382     2.7188581706
C     -2.443729136     1.0481435791     2.1196483624
C     -0.1456470254     2.0357362024     2.3996914592
C     -3.4412563268     1.5844520623     -0.058957553
C     -2.8333242163     2.3320522182     -1.1007399344
C     -2.7960071132     2.0169414152     1.1966883982
C     -0.8522248125     3.5236959283     -1.3493920813
C     -0.5393359543     3.1253292141     1.4767042189
C     -1.9888814602     3.3300299965     -0.5206388819
C     -1.8504609625     3.0675125802     0.8752640513
C     1.5570123293     3.5430790598     -1.3272934434
C     2.5845575585     3.4971327376     -0.2977715
C     1.8628889709     3.4637509849     0.9244313448
C     0.3140382467     3.9455063143     -0.7375122314
C     0.47120955     3.7784305376     0.7150932891


