60

 C     0.3449189248     4.3617508088     -0.6802458931
C     0.3449189248     4.3617508088     0.6802458931
C     1.6422551142     3.7850541163     1.1433894042
C     1.6422551142     3.7850541163     -1.1433894042
C     2.2843581631     3.186087015     0.
C     1.3581551661     3.0333228634     -2.2489364938
C     -0.7304597459     3.7478522719     -1.4482153528
C     -0.096849638     3.1159667982     -2.5451966062
C     -1.8049203182     3.056011914     -0.7522622743
C     -0.7304597459     3.7478522719     1.4482153528
C     -1.8049203182     3.056011914     0.7522622743
C     1.3581551661     3.0333228634     2.2489364938
C     -0.096849638     3.1159667982     2.5451966062
C     1.7527011382     1.6719449828     2.3543236416
C     2.5874369543     1.7770176363     0.
C     2.3919817766     1.0246121483     1.2487018772
C     1.7527011382     1.6719449828     -2.3543236416
C     2.3919817766     1.0246121483     -1.2487018772
C     -0.4971846027     1.8663405236     -3.0288974395
C     0.6686143097     0.9763137496     -3.0207536596
C     -2.3496441047     1.9229691598     -1.4107042672
C     -1.7126169189     1.3365219611     -2.5749561786
C     -2.9672175243     0.8054467088     -0.6989379493
C     -2.3496441047     1.9229691598     1.4107042672
C     -2.9672175243     0.8054467088     0.6989379493
C     -0.4971846027     1.8663405236     3.0288974395
C     0.6686143097     0.9763137496     3.0207536596
C     -1.7126169189     1.3365219611     2.5749561786
C     0.5255736754     -0.4011659006     2.9322455686
C     2.3537864221     -0.4208427227     1.2374359906
C     1.5965145867     -1.1335342887     2.2714977219
C     2.3537864221     -0.4208427227     -1.2374359906
C     2.5934007553     -1.1330363398     0.
C     0.5255736754     -0.4011659006     -2.9322455686
C     1.5965145867     -1.1335342887     -2.2714977219
C     -1.8861213648     -0.0784199819     -2.5365595442
C     -2.7296618044     -0.4130562864     -1.401398173
C     -0.8350934459     -0.9555452625     -2.8838753721
C     -2.6088601493     -1.6779856031     -0.7338667507
C     -2.7296618044     -0.4130562864     1.401398173
C     -1.8861213648     -0.0784199819     2.5365595442
C     -0.8350934459     -0.9555452625     2.8838753721
C     -2.6088601493     -1.6779856031     0.7338667507
C     -0.9784304335     -2.3114563963     2.489782361
C     -1.8942975035     -2.7017784634     1.4068920256
C     1.4573941479     -2.5390320168     2.1971288898
C     0.1480780598     -3.1312729163     2.4253117022
C     2.5199905627     -2.5823532769     0.
C     2.0865253651     -3.2800699861     1.1694223362
C     1.4573941479     -2.5390320168     -2.1971288898
C     2.0865253651     -3.2800699861     -1.1694223362
C     -0.9784304335     -2.3114563963     -2.489782361
C     -1.8942975035     -2.7017784634     -1.4068920256
C     0.1480780598     -3.1312729163     -2.4253117022
C     -1.2989042816     -3.8236772899     0.7082063287
C     -0.0654220549     -4.1519741767     1.4038073559
C     1.1365921934     -4.308153925     0.7139654816
C     1.1365921934     -4.308153925     -0.7139654816
C     -1.2989042816     -3.8236772899     -0.7082063287
C     -0.0654220549     -4.1519741767     -1.4038073559


