60

 C     2.5766701379     -2.9164885715     0.5544930124
C     1.7747747096     -3.5806979639     -0.3503832129
C     0.5615937569     -4.0130284477     0.3291666818
C     1.8474492432     -2.8228740926     1.8372844433
C     0.5489599593     -3.3590328448     1.613915516
C     2.0091760968     -1.5090519956     2.2829783172
C     3.1663965598     -1.6638166366     0.2512356711
C     2.9746275386     -0.8259459991     1.4048035445
C     3.0397405791     -1.1030159715     -1.0744385011
C     1.418590686     -2.9525684759     -1.6032880461
C     2.0726036909     -1.739153741     -2.0032432725
C     -0.5038489588     -3.8039098777     -0.5545337772
C     0.004613757     -3.1485970917     -1.7764123003
C     -1.7492997079     -3.4177320868     -0.0254917785
C     -0.6281457323     -2.6322508125     2.0806781928
C     -1.8118724131     -2.8294270983     1.3385137875
C     0.9242222397     -0.768590449     2.8663571241
C     -0.4262791378     -1.3425512268     2.7910806942
C     1.0943969161     0.6397360318     2.9064521189
C     3.036960838     0.5774630767     1.3206388751
C     2.1743585899     1.3326194065     2.180238906
C     3.2595965768     0.2865959172     -1.1624396653
C     3.3807091056     1.1256380399     0.0379400538
C     2.6091389885     1.1018392208     -2.1699842276
C     1.3001380959     -0.8697208551     -2.826233959
C     1.5662276996     0.5498710509     -2.9065657114
C     -0.7987122634     -2.16990259     -2.4488868232
C     -0.111691039     -1.0593023335     -3.0072460201
C     -2.5914219778     -2.6449939972     -0.8248607509
C     -2.1519894145     -1.9638134552     -2.0071143423
C     -2.8664974144     -1.8225250405     1.3217006524
C     -3.3726081226     -1.7321686868     -0.0060925379
C     -1.513340481     -0.4348446941     2.8377237024
C     -2.7071315954     -0.6454560536     2.0471101017
C     -0.0222569158     1.5243302382     2.9862085333
C     -1.3091696606     0.994302295     2.9147558293
C     1.69462871     2.6098024981     1.7864170627
C     0.3161342869     2.7489340307     2.2695415342
C     2.9625599433     2.4332672174     -0.2852167073
C     2.4441505531     2.4227692228     -1.6407239386
C     2.0611221751     3.1650901541     0.5331218947
C     1.2203522099     3.1060247211     -1.6696138356
C     1.0253450669     3.6996451911     -0.3334640918
C     0.3122747949     1.2583489402     -3.0319456519
C     -0.7249593545     0.2557854139     -3.0550974527
C     0.0953945742     2.5133781406     -2.3865365405
C     -2.6998571359     -0.640560501     -1.929460685
C     -3.4667595469     -0.5061850667     -0.6690973983
C     -2.0055471074     0.4869607696     -2.4606109983
C     -3.1043971457     0.6266046286     1.4729351555
C     -2.3215512514     1.6609352278     2.1212420726
C     -3.4226214224     0.7189411247     0.071892737
C     -0.6335771515     3.3889594205     1.5020694142
C     -0.2719947841     3.8571055772     0.1451709414
C     -1.9906014794     2.8271714093     1.4243188729
C     -1.2229413044     2.7941713914     -1.8942844892
C     -2.2428404313     1.7734733259     -1.8730563449
C     -2.9912067625     1.8920639382     -0.6320168481
C     -1.3748386757     3.5652549386     -0.6997207834
C     -2.4349496921     2.9811243978     0.0780752492


