60

 C     -0.3022220457     -4.5035607851     0.1426549692
C     -0.9735443353     -4.2007543861     -1.0350917728
C     -2.1370558871     -3.3445316017     -0.6825413025
C     -1.1051725352     -3.9368179429     1.2701838329
C     -2.1611412798     -3.1122833696     0.7302348866
C     -0.2347402515     -3.4130829173     2.1847963594
C     1.0580352385     -4.0919434543     0.3346831852
C     1.1343495645     -3.5873229109     1.6864338393
C     1.7272282314     -3.3487461025     -0.7325724217
C     -0.3307892576     -3.6110522381     -2.1390826459
C     1.0049350226     -3.1007721729     -1.9664906084
C     -2.2465117728     -2.3078404442     -1.6387972954
C     -1.1541600443     -2.4983144784     -2.565517059
C     -2.5985784463     -1.0096391166     -1.2123476341
C     -2.3641013605     -1.7902900162     1.1977763413
C     -2.8471365396     -0.8191975046     0.2153058943
C     -0.3835641512     -2.0579656748     2.664943204
C     -1.4831962044     -1.2624358233     2.2641361382
C     1.8232965701     -2.4162432094     2.0055717918
C     0.9187450076     -1.4604796986     2.6920357385
C     2.6312122889     -2.3198620277     -0.3313816735
C     2.7204861837     -1.8817029697     1.0667775291
C     2.8673609923     -1.1474875613     -1.1203366512
C     1.0363888932     -1.7731015601     -2.5516888693
C     -0.3403605     -1.3937772243     -2.8513549337
C     1.955633271     -0.7840593313     -2.1585924159
C     -2.0694740829     0.1389845247     -1.9458687255
C     -0.81378902     -0.0703063707     -2.6429568289
C     -2.4369042534     1.4696392165     -1.5241577867
C     -3.0243753793     0.4841534863     0.647823543
C     -3.1082653298     1.6030782349     -0.252804929
C     -1.3417465019     0.1638355734     2.4467974611
C     -2.4043706618     0.9621207058     1.8967287857
C     1.1159230472     -0.0645067823     2.6258780322
C     -0.0654389185     0.7987369899     2.6643371263
C     3.0469519927     -0.5090230987     1.123840259
C     3.3263705554     -0.103260165     -0.2389132821
C     2.330800382     0.4137109654     1.9827409549
C     3.2390387507     1.2172349315     -0.6016783516
C     1.597109859     0.6415867463     -2.3547350494
C     0.1821316565     1.0000684063     -2.6557710173
C     2.3997067791     1.6174523322     -1.7411079068
C     -1.6338271501     2.5743637999     -1.9634980039
C     -0.2733878885     2.3034214933     -2.4429661976
C     -1.5691991862     3.7707690774     -1.1906329127
C     -2.9105211681     2.7691839909     0.5443656911
C     -2.352210113     2.335089251     1.8479891064
C     -2.1526893701     3.8298840357     0.0983086796
C     0.0740396132     2.2489962076     2.3914489241
C     -1.113417297     3.036257928     2.0523320001
C     -1.0583535481     4.080044264     1.0860920195
C     2.414532814     1.7849645272     1.6458914153
C     3.0165711554     2.1722196282     0.425070553
C     1.3066389125     2.7201840201     1.8884201985
C     1.8832569815     2.942533502     -1.4409342242
C     0.6054145241     3.3265554766     -1.8784251013
C     -0.1788420452     4.1631690317     -1.0540574683
C     0.1301812221     4.309794615     0.3579546775
C     2.2818919319     3.2926532062     -0.1076818367
C     1.340855284     3.7496741707     0.8404319684


