60

 C     -1.1933272148     -4.1264877305     -0.5335963586
C     -0.0747391369     -4.1348706717     0.2638549015
C     -0.3851574544     -3.3756958356     1.5038374097
C     -2.2516109764     -3.4137850893     0.1196852038
C     -1.7621937522     -2.9432730714     1.3959827161
C     -2.7385961368     -2.4588544193     -0.7981467017
C     -0.8709278118     -3.4113955911     -1.7896356877
C     -1.8138305402     -2.3841524686     -1.9654042963
C     1.0479283413     -3.7065267731     -0.5544344495
C     0.5135546478     -3.1351779098     -1.8264683563
C     2.0797462238     -3.1022784868     0.0712352057
C     0.5983684112     -2.5439020712     2.0678735366
C     1.93779953     -2.6627155371     1.4885973859
C     0.2187829337     -1.2650655211     2.6950790296
C     -2.1429073701     -1.663150941     1.8817261952
C     -1.1808123044     -0.8712822674     2.6464145195
C     -3.2673907987     -1.2839354835     -0.2888424207
C     -3.1080946405     -0.943405016     1.0866490948
C     -3.2381742903     -0.0657807001     -1.0774415931
C     -1.4067211342     -1.1079357729     -2.4468630641
C     -2.3004098842     0.0328089725     -2.1607050156
C     0.9856997274     -1.8779711831     -2.2878284856
C     0.0092773703     -0.8726293281     -2.7039030354
C     2.8824939084     -2.1178784465     -0.6387570585
C     2.327374392     -1.4488181719     -1.7982713682
C     2.8417883811     -1.6393721214     1.6265078694
C     3.5305218305     -1.3658623272     0.351947917
C     1.2467211255     -0.2125540778     2.8347400452
C     2.5295401353     -0.3861533261     2.2369429294
C     0.8503467651     1.1465394502     2.9710953606
C     -1.5171576288     0.5192011707     2.86226623
C     -0.51850284     1.4600418913     3.1172144311
C     -3.2748439367     0.4955824485     1.1634992574
C     -3.4602163373     1.0285718409     -0.1820662283
C     -2.5638244658     1.2109731255     2.0971291952
C     -2.9617782191     2.300384218     -0.4960899669
C     -1.8553068002     1.3421771661     -2.4774210897
C     -2.3046185497     2.4580294761     -1.7325746914
C     0.4644652713     0.5144216443     -2.9081277427
C     -0.4618941732     1.5803556091     -2.8530856697
C     2.7424016516     -0.1244703915     -1.9982575794
C     1.8444880724     0.851609036     -2.6374820542
C     3.7351383423     0.0148425546     0.2484491642
C     3.1312444861     0.6540459156     1.4359337781
C     3.5166234759     0.5980264173     -1.0033099006
C     1.4365681112     2.2053638345     2.1866563638
C     2.5278933921     1.9508394268     1.3319766797
C     -0.8090217096     2.7138112378     2.4403663712
C     -2.067937764     2.5611865539     1.7696323713
C     -2.2227920376     3.0823716676     0.4962042504
C     0.3506049766     3.1281245524     1.7863389396
C     -1.1764396748     3.3611724872     -1.5478920834
C     -0.0859183554     2.8945224483     -2.3153227121
C     -1.0489595376     3.678786827     -0.1792258699
C     0.2728076176     3.6373894458     0.4303684844
C     2.1888693514     2.130934679     -2.172964273
C     3.0964342872     1.9600700257     -1.0552332978
C     2.5634127491     2.6339440705     0.0501961703
C     1.2021543373     3.0868628255     -1.813713217
C     1.3910558303     3.4123900123     -0.4153366393


