60

 C     -1.7064262186     4.0235064122     -0.0823577714
C     -2.7194056432     3.0398716115     -0.2848845212
C     -2.8747143779     2.242135303     0.8869985881
C     -1.0851568009     3.747606041     1.1620705988
C     -1.7761913153     2.6455938372     1.7772240144
C     0.3297128172     3.5829704805     0.9394115475
C     -0.7162958343     3.805043448     -1.0985603206
C     0.5644428205     3.6847312113     -0.4979692532
C     -2.4821098915     2.3702480917     -1.5403142912
C     -1.1501151425     2.7817725952     -2.0160460012
C     -2.8578076264     1.0544347439     -1.6638513203
C     -3.2444671208     0.8690032913     0.7629618872
C     -3.3886694299     0.3094629223     -0.5433530593
C     -2.7671406233     -0.0257442483     1.7716334906
C     -1.0689387373     1.6581473192     2.5204836888
C     -1.7233875008     0.3808502346     2.6507786479
C     1.0925889765     2.6648610667     1.709936743
C     0.3920502419     1.703739459     2.5842202597
C     2.3451806822     2.3098403446     1.1467257377
C     1.5758463806     2.9218151007     -1.1241482892
C     2.6442228313     2.5434531827     -0.2467477803
C     -0.2284031069     1.8268943668     -2.5177110342
C     1.199535577     2.0187333228     -2.224278785
C     -2.053811865     0.13724241     -2.4507624726
C     -0.7284274393     0.4617878625     -2.815037204
C     -3.1364514048     -1.0911280393     -0.7901400155
C     -2.4020525016     -1.1909292868     -2.0235710806
C     -2.6675273698     -1.4694492723     1.5612851541
C     -2.8800605748     -2.0362944983     0.2622114234
C     -1.0003435163     -0.8147882594     3.0226684913
C     -1.6358909762     -1.9733170887     2.4231122991
C     1.0761190538     0.4986570329     2.9081321972
C     0.3736095915     -0.7499804426     3.1256436429
C     3.0449536305     1.079251126     1.5488752197
C     2.3572298293     0.1600107329     2.3563969717
C     3.5521005253     1.5249174186     -0.6401590673
C     3.8082479152     0.5983353883     0.482576138
C     2.0772957232     0.9286634418     -2.4871696
C     3.3037273647     0.7740139889     -1.7626216834
C     0.216849059     -0.6674437383     -2.9233989033
C     1.584723775     -0.4012163066     -2.7376794851
C     -1.5508747208     -2.2872563526     -2.2645981074
C     -0.1987139297     -2.0050932611     -2.6729966353
C     -2.149659189     -3.2448774313     -0.0768712003
C     -1.575371049     -3.3948429137     -1.3914878545
C     -0.850616947     -3.0651239461     2.0112752881
C     -1.2001515501     -3.7740501325     0.8485005198
C     1.2015240412     -1.8392040462     2.6046366902
C     2.3847172158     -1.2544674644     2.0268538815
C     0.6203215114     -2.9500023096     2.040743921
C     3.6593216403     -0.7487511029     0.0145794235
C     3.4574638755     -0.654030896     -1.3969741445
C     2.4305042282     -1.3591398465     -2.0017206555
C     2.894064075     -1.7114299536     0.7723250807
C     0.6560249072     -2.9685774518     -1.9621446108
C     -0.2064957461     -3.8469684357     -1.2461637201
C     0.0398966562     -4.0694925617     0.112232179
C     1.1429861366     -3.4825386575     0.7809776064
C     1.8701450079     -2.5301796766     -1.381905146
C     2.130272059     -2.741276268     0.0501524822


