60

 C     0.2045437964     -4.7993305298     -0.6878290923
C     1.5225835598     -4.4409026788     -0.6840108625
C     1.8979593565     -3.9293880421     0.6400610527
C     -0.3589889953     -4.5278612103     0.6553955847
C     0.7179745777     -3.9904012178     1.4945803942
C     -1.4899396304     -3.7498893295     0.4664431217
C     -0.4886934418     -3.9852897457     -1.6719083197
C     -1.55573536     -3.3999309663     -1.0117583782
C     1.7565129113     -3.4003679781     -1.6840526777
C     0.48388959     -3.0476889247     -2.2767936169
C     2.5367953617     -2.7000092181     0.4369985496
C     2.4594522844     -2.3875805315     -1.0295449209
C     2.3519793652     -1.6101147306     1.3511928139
C     0.4435227559     -2.8802317621     2.3007914485
C     1.3496231244     -1.7520084159     2.341666134
C     -1.8597500181     -2.7213775871     1.4122866989
C     -0.8982520603     -2.3189535687     2.3792268126
C     -2.7704946008     -1.7447950488     0.9636341208
C     -2.047581248     -2.1196225551     -1.394435161
C     -2.9862449731     -1.5544033047     -0.4809688427
C     0.143243624     -1.6852676256     -2.4706011389
C     -1.2413059924     -1.2372323024     -2.2267431171
C     2.2836656183     -1.0534204655     -1.4151936511
C     1.173596372     -0.6794317217     -2.2557623592
C     2.6883316715     -0.2774133409     0.9115868458
C     2.7977435786     -0.0501463015     -0.5077051951
C     2.2833272729     0.8733495028     1.7007520917
C     0.5931227502     -0.57656216     2.7072477293
C     -0.7976835887     -0.9122772641     2.7153253813
C     1.041814193     0.7385933831     2.4638195205
C     -2.8739879815     -0.4389822788     1.5600470821
C     -1.7658000789     0.0597995227     2.3338971627
C     -3.4280036984     -0.261464282     -0.6794454878
C     -3.4852839252     0.4193231092     0.6024837179
C     -1.5704384183     0.1707979726     -2.2872967265
C     -2.7628851524     0.6097573595     -1.6013366177
C     0.8726516744     0.736907784     -2.4347656339
C     -0.5213890787     1.1769640336     -2.5304341325
C     2.8262765122     1.256062736     -1.0209895934
C     1.8566722543     1.671354981     -2.0493720273
C     2.6503355652     2.1550860963     1.2210962691
C     3.0182873471     2.325755303     -0.1587419047
C     1.8210320727     3.2727245297     1.5064740004
C     0.0532455509     1.8046724377     2.4308794491
C     -1.3488792843     1.4608850045     2.197730752
C     0.5138369624     3.1136795959     2.0457573255
C     -3.0536035708     1.7279079404     0.4209478933
C     -2.8064860185     1.9106756312     -1.0251776064
C     -2.1232205249     2.3458403553     1.3232161476
C     -0.7840013182     2.550843276     -2.2801011455
C     -1.9557042851     2.9100227118     -1.4578474595
C     1.5860935963     3.0807507259     -1.8449254877
C     2.3771308153     3.5250358928     -0.7134581488
C     1.7726343161     4.2023037254     0.3455471486
C     0.2479743799     3.5176095252     -1.9600473538
C     -0.3315860321     4.0265604672     1.3353242123
C     -1.5700587975     3.5898496565     0.8468889847
C     -1.6092891727     3.9401583044     -0.5731440269
C     0.4450656272     4.6533813088     0.2377457602
C     -0.2856313913     4.4056921157     -0.9346534197


