60

 C     1.1465909602     4.290637103     -0.4819052088
C     0.056400753     4.2607699758     0.4677541572
C     0.461025782     3.4890974073     1.5961121213
C     2.2321030193     3.5086112757     0.0184042415
C     1.8623505802     3.0759182091     1.3259747157
C     2.539523994     2.50129053     -0.9573938431
C     0.7025082938     3.7561077628     -1.7028854081
C     1.5310850589     2.6080119253     -2.0129765843
C     -1.1427256974     3.9392294741     -0.2401779105
C     -0.7347572568     3.6026779404     -1.6253600703
C     -2.0826637402     3.1357680553     0.398964579
C     -0.4322640377     2.5478225349     2.1942698305
C     -1.7699842154     2.5070690946     1.6680912016
C     0.104169009     1.2975269734     2.7923841072
C     2.3078473534     1.8355771605     1.7585900264
C     1.4785095106     0.9762303218     2.6027361238
C     2.9808226325     1.2280881008     -0.5447202464
C     3.0479348982     0.9889235521     0.877821167
C     2.6965219192     0.0734044536     -1.3858660493
C     0.9529062126     1.4243317062     -2.5497000021
C     1.5987286395     0.1288067107     -2.3295925874
C     -1.3025222708     2.5016159745     -2.2282352037
C     -0.4642615372     1.4304700322     -2.7798215649
C     -2.8836728883     2.1881122356     -0.3633090234
C     -2.4848284992     1.8690338255     -1.6642923944
C     -2.5711549483     1.312526706     1.7774111443
C     -3.2891059738     1.1193771089     0.5246241171
C     -0.7488601937     0.1767210923     2.9770160334
C     -2.1178107984     0.2000581951     2.4832715609
C     -0.2760551445     -1.1814808052     2.9155814495
C     1.9329156363     -0.3703569237     2.4605358387
C     2.9403522063     -0.3451437692     1.4139235439
C     1.0695414064     -1.5004231018     2.5792392084
C     3.0846842325     -1.2006774452     -0.8617428254
C     3.11338449     -1.4260870776     0.5996520085
C     2.6154843582     -2.3681779063     -1.4272366071
C     0.8556864992     -1.1016675794     -2.6165071237
C     1.4681807207     -2.35714429     -2.2830544265
C     -1.2104585609     0.2231146355     -2.7345430457
C     -2.4903474185     0.492463737     -2.0929681033
C     -0.598704316     -1.0627576799     -2.6692739159
C     -3.4850253575     -0.1688509414     0.0436096886
C     -3.0757342416     -0.4904856482     -1.3132573957
C     -2.4725147307     -1.1294489579     2.0674152112
C     -1.3630873753     -2.0103423219     2.4209041893
C     -3.1608496787     -1.321804247     0.8591215371
C     -1.1043831138     -3.1602807691     1.7106017192
C     1.3683986594     -2.7417340299     1.8254935832
C     2.4737093246     -2.697341125     0.8906829726
C     2.3924229503     -3.3760888687     -0.3600366328
C     0.2714212485     -3.6142636038     1.4854007511
C     0.6760177207     -3.4829776193     -1.9137505406
C     1.2830515254     -4.1237099428     -0.70278664
C     0.2615129661     -4.3085750017     0.2341710233
C     -1.387816962     -2.1626238796     -2.0965050616
C     -2.5513712943     -1.8323408434     -1.3363990924
C     -2.732281304     -2.3868247177     -0.0104321423
C     -1.8632075633     -3.3882374845     0.4687643242
C     -0.7090210073     -3.3782431868     -1.7164599789
C     -1.0003225353     -4.0013044431     -0.4373325471


