60

 C     -0.2752205797     -3.8676928685     1.5008000964
C     -0.841889181     -4.2267644796     0.2644944607
C     -2.0896151382     -3.456531143     0.089483229
C     -1.2013422835     -2.9333914085     2.1447139919
C     -2.2723403574     -2.6436063428     1.2459261438
C     -0.4729463976     -1.8890643726     2.7410605296
C     1.0288082768     -3.3064674168     1.5730421502
C     0.9336824199     -2.1872676091     2.5121337333
C     1.8363357607     -3.131622823     0.3893806087
C     -0.0788202828     -4.0785444611     -0.8941714214
C     1.2329880298     -3.5482747078     -0.8579065107
C     -2.0736051245     -2.8442195522     -1.1914081135
C     -0.8755583432     -3.2670474657     -1.8513469256
C     -2.5206702528     -1.5040303584     -1.3579310323
C     -2.7429792298     -1.3075446397     1.1213599837
C     -3.1510567786     -0.8592939718     -0.20766868
C     -0.9593472492     -0.5439764591     2.7176401594
C     -2.215943512     -0.2971482503     2.0391902619
C     0.0158134583     0.5520692834     2.8446346287
C     1.8141003656     -1.1457383127     2.4577538083
C     1.3851864253     0.2048604969     2.7593755241
C     2.7939734413     -2.0084414561     0.3497218356
C     2.8633853273     -1.0979935936     1.4531600549
C     3.139209567     -1.4337665417     -0.9260552313
C     1.315246072     -2.6367435886     -2.0046927965
C     -0.0442821863     -2.3547524742     -2.484839603
C     2.2397311115     -1.6543480982     -2.0607302605
C     -1.8011828077     -0.6451872186     -2.2953155374
C     -0.4697312668     -0.9951151537     -2.7310163437
C     -2.151063172     0.7395740842     -2.328001389
C     -3.5562300519     0.4835088449     -0.3504532234
C     -3.1888960812     1.2213668425     -1.516089458
C     -2.5985025534     1.0630349893     1.8163204742
C     -3.4476770594     1.3913011891     0.7528382036
C     -0.3612749061     1.934918916     2.5056940995
C     -1.6802985811     2.1855168649     2.0622160965
C     0.6654199361     2.8512671429     2.0588728738
C     2.3619938189     1.089898014     2.1546140435
C     3.2413064152     0.2833479746     1.3098698423
C     2.0140780335     2.3765283976     1.806262425
C     3.5740591493     -0.1062521366     -1.0342409353
C     3.6279724632     0.7906230163     0.0571678423
C     1.9062114121     -0.347356861     -2.6482083548
C     0.5469618127     0.0450825828     -2.8535195354
C     2.826773015     0.5610339773     -2.1068597787
C     -1.1516738167     1.7912282757     -2.5021517539
C     0.2127510612     1.4668517526     -2.6341872439
C     -2.8553177741     2.5904114525     -1.1227600521
C     -3.0316520259     2.7016741365     0.2477670844
C     -1.9718252909     3.2080731308     1.0690430058
C     -1.6032581039     2.9514674547     -1.7396368395
C     0.3637189423     3.8014844626     1.0466345259
C     -0.9109652971     3.8806281824     0.4403318691
C     -0.6896667352     3.6961578758     -1.0048624648
C     2.4414557616     2.9150412652     0.5025639344
C     3.0871934733     2.0728004538     -0.3935885068
C     2.4930270608     1.8722013915     -1.7124468786
C     1.1999013335     2.3970208976     -2.0398550348
C     1.3915014727     3.7287721806     0.0283064396
C     0.732047303     3.4704381361     -1.2124301551


