60

 C     -0.5320951886     4.4275881314     0.0718354572
C     -0.8109657364     3.9025056931     -1.2211999192
C     -1.9304614033     3.0171113281     -1.1484593349
C     -1.3500684447     3.7102468759     0.9945575115
C     -2.2777103124     2.897948796     0.2656300977
C     -0.5371311666     3.0711521635     2.0026810224
C     0.8187922405     4.0429013966     0.3743117631
C     0.8499514629     3.3588312058     1.6434333872
C     0.418756618     3.3660157796     -1.7797303873
C     1.4667436836     3.4571062662     -0.7577154673
C     0.3530613346     2.2500830947     -2.6043165768
C     -2.0030658486     1.8630894761     -1.995133608
C     -0.8859834475     1.5553091059     -2.8280864549
C     -2.7781458654     0.7641166741     -1.5168226738
C     -2.7137825362     1.6668179728     0.8047638798
C     -3.1743935588     0.6940278546     -0.1486553732
C     -0.8889584261     1.8070966083     2.5393093533
C     -2.1202329506     1.1753467184     2.0467756527
C     0.2109861308     0.9392838913     3.017979369
C     1.8301157028     2.4067129131     1.837830532
C     1.5472705071     1.2322491273     2.6357925073
C     2.3996380877     2.3890919216     -0.5787959785
C     2.7160460255     2.0157265872     0.7653727736
C     1.4083082976     1.2514499378     -2.5735170564
C     2.457337335     1.315166159     -1.5979922717
C     -0.5566936204     0.1763522254     -3.1131624943
C     0.8681502037     0.005035474     -3.0449100935
C     -2.5837338565     -0.5955056179     -2.0035099302
C     -1.4338023191     -0.9078297283     -2.8038368309
C     -3.3358234938     -0.7065797566     0.1837677114
C     -3.0481441392     -1.5081077565     -0.9985973846
C     -2.3353960052     -0.1982177442     2.3644111598
C     -2.9676865916     -1.147845892     1.4351578825
C     -0.0646425515     -0.4361440012     3.2803927045
C     -1.3712668757     -0.9212171465     3.0819290511
C     0.8338647699     -1.5014076478     2.8923090817
C     2.4457916829     0.1844833428     2.2270018425
C     3.1702589707     0.6883371617     1.0767843767
C     2.0769362526     -1.2021869276     2.3119567326
C     3.0815444629     0.0826022057     -1.2839750084
C     3.5161589631     -0.1998967686     0.0589844507
C     1.4573753075     -1.2532692316     -2.7049217811
C     2.6511192786     -1.1943965977     -1.8959756382
C     -0.8462557489     -2.2133979061     -2.6590204113
C     0.618411523     -2.3897209026     -2.5926836296
C     -2.4350202503     -2.7587993549     -0.8563573095
C     -1.4343004983     -3.145464232     -1.7870435858
C     -2.2989275585     -2.4553626043     1.5736273435
C     -1.3082099449     -2.2978481378     2.5947205022
C     0.0270011257     -2.6462442004     2.4168847766
C     -2.0057052994     -3.2251440728     0.4621137709
C     0.8841691382     -3.4061711289     -1.592403259
C     -0.3639240163     -3.8238374187     -1.0625148272
C     0.4146531575     -3.4167242083     1.2488324727
C     -0.6456125621     -3.7841256568     0.3163623885
C     2.5760796287     -2.1137949859     1.295096033
C     3.3642178008     -1.6104992623     0.2718626201
C     2.9061454751     -2.2157438012     -0.9757572008
C     1.7092714502     -3.1975184001     0.7264551025
C     1.9599832996     -3.2407848981     -0.6938283239


