60

 C     -1.7231164974     -3.7566730169     -0.2993833474
C     -1.9512032594     -3.4575319773     1.0284671798
C     -0.6618486898     -3.5777274804     1.7523484402
C     -0.2967209735     -4.1003075581     -0.4584638119
C     0.3442303723     -4.0048711016     0.8202247911
C     0.2035406144     -3.3716894873     -1.5514830574
C     -2.0891909782     -2.8196226917     -1.3268783219
C     -0.9003372549     -2.589072028     -2.1305511678
C     -2.904607663     -1.735783108     -0.9933696377
C     -2.5901658851     -2.2338638505     1.4034084579
C     -3.1948380116     -1.4546878135     0.3962727929
C     -0.4982984014     -2.3986182594     2.4861066844
C     -1.7249994563     -1.584824527     2.3543437431
C     0.792325691     -1.7480624517     2.5695081824
C     1.6137694269     -3.4234414559     0.9003636927
C     1.8686867843     -2.3958219233     1.9048230021
C     1.5456916327     -2.8318945145     -1.5185509655
C     2.2946221823     -2.991396781     -0.3021613832
C     1.777618601     -1.6613058222     -2.3003470962
C     -0.669394466     -1.349725448     -2.7664265207
C     0.7048922271     -0.9791270537     -2.9435191372
C     -2.741789086     -0.4629601858     -1.6752004673
C     -1.6805287742     -0.2672656902     -2.6317750161
C     -3.2166173368     -0.0355127985     0.5460626068
C     -3.1032612461     0.5822060945     -0.7853103382
C     -1.679772215     -0.1931345483     2.4835250965
C     -2.5958488617     0.595170434     1.6390321954
C     0.8305680048     -0.2967827331     2.8032477007
C     -0.4240813494     0.4311559983     2.9337562447
C     2.0035926481     0.4485831046     2.352385787
C     2.9617874889     -1.6046042896     1.4106126482
C     3.2294433258     -1.9655283199     0.0746974043
C     2.9701461453     -0.1915053344     1.537182425
C     2.7247761295     -0.6173919665     -1.8756349396
C     3.3862578709     -0.7451070417     -0.6657532572
C     3.3363271069     0.3819591254     0.2585086857
C     1.0678560394     0.4252919861     -3.0937122467
C     2.251821028     0.6748590126     -2.3229470844
C     -1.3043843848     1.0621558967     -2.8911631522
C     0.0842239192     1.3937984704     -3.1920423339
C     -2.647724203     1.9160775884     -0.9611076976
C     -1.8483960263     2.1826710047     -2.1275646195
C     -2.3817173049     2.0135421714     1.5205619736
C     -2.4244194087     2.7021656056     0.2042627328
C     -0.3942999781     1.8610425969     2.9523765707
C     -1.469020025     2.6437167799     2.344274208
C     1.9045870674     1.8571790436     2.1397728255
C     0.7994290611     2.5512783944     2.6488254737
C     2.8681396283     1.6630021572     -0.1421365107
C     2.3751026226     1.8530006012     -1.517191467
C     2.327362966     2.4753781031     0.8890535091
C     0.3581785411     2.6815925559     -2.6536869615
C     -0.8626667459     3.1985068286     -2.0628046982
C     1.4247250117     2.9027749228     -1.7635139593
C     -1.4335323473     3.7373471945     0.2353307085
C     -0.871527713     3.7372254629     1.5681003698
C     0.4910293707     3.6572409032     1.7310601044
C     1.4000293656     3.5655866396     0.6066660006
C     -0.5542638756     3.8987797062     -0.8693141338
C     0.8978112453     3.7525528752     -0.673169107


