60

 C     -1.8515165104     -4.0292928976     0.5286352102
C     -0.4845006808     -4.2153076411     0.3894465801
C     0.2332162282     -3.5566910025     1.4759489355
C     -2.0394240396     -3.070573596     1.5945386548
C     -0.7531077141     -2.7628372147     2.1744254312
C     -2.8166036617     -1.9931210667     1.1332750234
C     -2.3045082686     -3.3510943847     -0.6864938835
C     -3.078639572     -2.2284628624     -0.3132402498
C     -0.0968785151     -3.8674417395     -0.9883062213
C     -1.2356770899     -3.2058037093     -1.6248365034
C     1.1574065632     -3.3955752042     -1.207021563
C     1.5406105994     -3.0718063177     1.2460043687
C     2.0974906592     -3.2195716198     -0.0886951843
C     1.9256080058     -1.8921347403     1.9698795148
C     -0.4553261504     -1.4240652806     2.5760877657
C     0.9219951717     -1.0749306312     2.5952957137
C     -2.601890551     -0.6521053572     1.5871688928
C     -1.4212182886     -0.3506211093     2.3699848946
C     -3.2157910062     0.4057168522     0.7926825186
C     -3.0761687535     -1.1328722501     -1.1532250835
C     -3.3752048223     0.1601366234     -0.6194169442
C     -1.0398968482     -1.9476950807     -2.3093216239
C     -2.0810381163     -0.9923848411     -2.1936336813
C     1.3911884021     -2.2816523682     -2.1551122052
C     0.3105145091     -1.4256533366     -2.5517336867
C     3.0399307558     -2.2943560138     -0.5322776054
C     2.6424401652     -1.7537056664     -1.8390009659
C     2.985801527     -1.0143581589     1.516774615
C     3.5441087413     -1.2117966238     0.2398511598
C     1.3672304635     0.3096490582     2.580693688
C     2.6888295851     0.3289869672     1.960355511
C     -0.9779749001     1.0468009808     2.4709453687
C     0.4743175655     1.3774674257     2.507934145
C     -2.9959821828     1.739059041     1.1833221752
C     -1.8714414825     2.0518079676     2.0655043517
C     -3.0242522202     2.7848645912     0.201528659
C     -2.8336039606     1.116689593     -1.5269000235
C     -1.8418724608     0.4150170032     -2.3498319417
C     -2.6666543631     2.4283962127     -1.1294154767
C     0.5690955983     0.0193324129     -2.6448053226
C     -0.5575317064     0.9632837617     -2.557465054
C     2.919255723     -0.3786993759     -1.87202272
C     3.6763909055     -0.0655030751     -0.6532437455
C     1.9165298228     0.5259869691     -2.3624359004
C     3.0830227069     1.4259165202     1.2186670024
C     3.594065051     1.2115609049     -0.1435786475
C     0.9772980732     2.6458874963     1.9012313094
C     2.252141961     2.6112237486     1.2115234495
C     -1.3749382517     3.3700605905     1.6810885326
C     -2.1144000976     3.8196433282     0.595763571
C     0.0460966557     3.5867001049     1.4330460205
C     -1.4252268865     3.1365734259     -1.517098729
C     -0.3504746144     2.3867663778     -2.1591292873
C     -1.1561260153     4.0600468407     -0.4845693535
C     0.1526162394     4.1199081324     0.07492149
C     2.0875370623     1.8941914733     -1.9669063666
C     3.0168896744     2.2276850278     -0.9537802216
C     2.3465486853     3.1745691201     -0.0862892679
C     0.9556260146     2.8225030837     -1.8734362491
C     1.2040667151     3.6936815304     -0.7333011446


