60

 C     -0.8757821743     -4.2351268228     1.1261502647
C     0.5240922464     -4.0883961129     0.948437046
C     1.0416251979     -3.1266908276     1.8593781937
C     -1.2901686807     -3.2515132898     2.0739556222
C     -0.1322013861     -2.5434462896     2.5349344815
C     -2.2644879342     -2.4139918763     1.4525264082
C     -1.4421247915     -3.85366363     -0.1371039395
C     -2.381032984     -2.8203926137     0.0423665331
C     0.8530076531     -3.9729725309     -0.469504695
C     -0.4068551739     -3.7096310555     -1.1539420915
C     1.9880671942     -3.2546262098     -0.8254771089
C     2.1268317647     -2.2889752039     1.4609999433
C     2.6815356891     -2.4131919274     0.1559004602
C     2.1847114053     -0.9924945097     2.0577881145
C     -0.1840085065     -1.144278338     2.8335039167
C     1.0539591608     -0.4509105354     2.7834051473
C     -2.4306505139     -1.0517797791     1.8122799348
C     -1.3984022779     -0.3602966914     2.5784258982
C     -3.2203756429     -0.3089276735     0.8926537815
C     -2.5989188083     -1.8352698759     -0.9692507095
C     -3.2595914477     -0.6694670959     -0.5331141635
C     -0.5120626059     -2.6833227636     -2.1404726191
C     -1.6642224315     -1.7573222226     -2.1055508275
C     1.9574874035     -2.5297262557     -2.0501508885
C     0.7406325602     -2.1809166674     -2.6569850391
C     3.1360033571     -1.2185747637     -0.5377841414
C     2.7324832526     -1.312409055     -1.8864881453
C     2.8402121396     0.116583653     1.443961369
C     3.1706549329     0.0812705104     0.0629592068
C     1.1344149684     0.9833725394     2.7816276572
C     2.3244675937     1.3282271613     2.0427697314
C     -1.3203745831     1.0961250611     2.5211390556
C     -0.0269414529     1.7924356374     2.6865917976
C     -3.2635435483     1.0824525743     0.9997765376
C     -2.3198916555     1.7930629736     1.7734764301
C     -3.1887402849     0.5689661856     -1.2609911905
C     -3.2849057533     1.659282608     -0.3361759593
C     -1.5293862991     -0.4880676809     -2.7264561674
C     -2.2652054747     0.6719095267     -2.304793372
C     0.8780725503     -0.7827884794     -3.0929550723
C     2.1124165121     -0.2301976196     -2.5524053052
C     -0.2334619273     0.0066854904     -3.1599785284
C     2.8749033612     1.2692710279     -0.7583742938
C     2.1765924565     1.0854444969     -2.0315183835
C     2.4268079737     2.5245505223     1.3747404257
C     2.684040008     2.5043533096     -0.0792701259
C     0.1584550561     3.1234851168     2.1563654934
C     1.4095159961     3.505783709     1.6126835883
C     -1.9934368156     3.0016910418     0.9983764767
C     -2.4694180122     2.7859312905     -0.3794706832
C     -0.8404361385     3.6946788949     1.2271344541
C     -1.4152954623     1.8606638174     -2.3953931546
C     -0.1357706706     1.4255392629     -2.8674596396
C     1.0761278123     2.0016762566     -2.3754759066
C     -1.52564335     2.9545787084     -1.4768539524
C     1.9034198646     3.5540844383     -0.6439326553
C     1.2249792703     4.2738788607     0.3952067744
C     -0.1398257197     4.2965226442     0.1002427481
C     0.9455173506     3.2248315361     -1.6672260826
C     -0.3478723245     3.7020297417     -1.2152020503


