60

 C     0.8632718606     4.451347712     -0.8811697369
C     -0.1901466752     4.5418211364     0.1240867081
C     0.3587339959     4.1122452147     1.3416716543
C     2.0237134849     3.8108663983     -0.2718065727
C     1.7416072694     3.6423128683     1.0832993415
C     2.3461100616     2.6255444341     -1.0273893472
C     0.4003439655     3.5929806889     -1.8759520481
C     1.3395586606     2.4991660789     -2.0695710345
C     -1.3675794487     3.8624770156     -0.3791046354
C     -1.0094641689     3.2711821228     -1.6662865511
C     -2.1199388663     3.07835102     0.5041829164
C     -0.279767966     3.1128409003     2.1355574709
C     -1.57272263     2.7145975229     1.8045064412
C     1.9055172295     2.3765381948     1.7201708094
C     0.7054590179     2.0573622131     2.4703089401
C     2.7567491029     1.4419253301     -0.3902045663
C     2.5635550922     1.3126629984     1.0578985858
C     2.6869837006     0.2284845813     -1.178246732
C     0.8839836472     1.2436283362     -2.5056156914
C     1.7236635247     0.0890116545     -2.2323390026
C     -1.4950618782     2.0198318988     -2.0626022706
C     -0.55940345     1.070574695     -2.7213921755
C     -2.8127836514     1.9221172894     0.0194304355
C     -2.6036466494     1.434568763     -1.2889482516
C     -1.996748021     1.3670347723     2.1049377254
C     -2.908487525     0.9384894053     1.1040281525
C     0.3328348078     0.7330328894     2.7403926753
C     -1.0991600545     0.4105822732     2.7086430051
C     2.4205613145     -0.0050737013     1.6298854093
C     1.3068976607     -0.3369842747     2.4821707652
C     3.1878900793     -0.9343200655     -0.537742726
C     3.0920023557     -1.04599487     0.9262296032
C     3.0115998332     -2.2264923696     -1.0748668463
C     1.2289369595     -1.2608304864     -2.5223512852
C     1.8601443248     -2.4096146965     -1.9361790203
C     -1.0147595674     -0.223920914     -2.95241024
C     -0.1353896245     -1.3898569424     -2.8400874081
C     -2.9777646679     0.0728085818     -1.540140542
C     -2.3236419044     -0.643906983     -2.5448437954
C     -3.1672399473     -0.4397926082     0.872659936
C     -3.3434445699     -0.8697982594     -0.4699187709
C     -1.488196947     -0.9310619342     2.6480953088
C     -2.5875193982     -1.3574838415     1.816091732
C     0.896728914     -1.7346016269     2.5649344385
C     -0.5080904644     -2.0194558243     2.6864694879
C     2.8818373739     -2.403763274     1.2219483795
C     2.9929555787     -3.1833526992     -0.010258544
C     1.6854440544     -2.7523796184     1.9250600301
C     1.0844976189     -3.4864241051     -1.3731540469
C     1.7700304012     -3.8526841204     -0.1295791781
C     1.0320195271     -3.7978079657     1.1112901481
C     -0.9211332182     -2.4974609594     -2.3141570224
C     -2.2356980031     -2.0214822572     -2.1274883346
C     -2.8944130694     -2.1814517081     -0.8746951615
C     -0.3345604138     -3.4648955035     -1.4080044994
C     -2.3080296506     -2.6963513746     1.4387405658
C     -1.0912649488     -3.1424137449     2.0528272734
C     -0.3474705766     -3.86517608     1.0646199422
C     -2.3130933105     -3.0807352369     0.0622775584
C     -1.0770102502     -3.7788188445     -0.2159095034


