60

 C     -1.8716182225     -3.7030766376     -0.244623575
C     -2.7435138312     -2.8571462051     0.3791411171
C     -2.2177697683     -2.5356521525     1.7340468385
C     -0.8029530216     -4.026910849     0.7320912679
C     -0.9354790489     -3.1219676179     1.8721614716
C     0.3705831299     -4.0846587083     0.0393016767
C     -1.2437360379     -3.2749061807     -1.478478268
C     0.1199789974     -3.6720752353     -1.3675227759
C     -1.5457720989     -1.9958809921     -2.0505228935
C     -3.1808284061     -1.648117383     -0.2199535871
C     -2.6451746589     -1.1982940459     -1.4580611656
C     -2.4703879648     -1.1994195693     1.9984859184
C     -3.300343566     -0.6929853485     0.8865435448
C     -1.462736648     -0.3532936933     2.5617344063
C     0.1572056533     -2.2901024033     2.2746011792
C     -0.1277659845     -0.9046289677     2.7176809993
C     1.537598514     -3.4178737111     0.5007266505
C     1.4785175727     -2.5920560222     1.6871972116
C     1.1843044829     -2.8617387449     -1.7558155676
C     2.196405126     -2.9040226792     -0.6846862679
C     -0.4447976011     -1.2712494     -2.689110013
C     0.9476386862     -1.6478996704     -2.4733384629
C     -0.6978984365     0.0822194355     -3.0935591842
C     -2.7657324767     0.2455718441     -1.7319663925
C     -1.8699454189     0.8396502608     -2.6414394681
C     -3.4114382556     0.627187093     0.6550836846
C     -3.3342628704     1.1177998135     -0.7238942645
C     -1.7028287177     1.1054790313     2.4283156731
C     -2.7633126758     1.5740591348     1.5548440885
C     -0.6362258453     1.9926266441     2.6409545305
C     0.9875028414     0.0487134385     2.8531974119
C     0.7026869836     1.4732213422     2.8862729097
C     2.5095243157     -1.6212772791     1.7987219112
C     2.2854733105     -0.3186006036     2.4331048872
C     3.103349709     -1.8830877219     -0.5631982658
C     3.4235562395     -1.4225887006     0.7402993359
C     1.9913520201     -0.6000761598     -2.386004683
C     3.0369391434     -0.7176649786     -1.4425767223
C     0.3531677993     0.9865318831     -3.2929481318
C     1.649032792     0.7369455351     -2.7687480518
C     -1.4543287608     2.2347685675     -2.511630073
C     -0.0775249506     2.3066041077     -2.8847179825
C     -2.9000614793     2.4430419311     -0.608723647
C     -2.5825429077     2.7391431193     0.7902467942
C     -1.8848507314     3.0070290246     -1.4290231017
C     -0.4969914495     3.225407252     1.8610082766
C     -1.395795695     3.5048791966     0.8280188533
C     -0.8986630246     3.648535212     -0.5486912095
C     1.6222978338     2.407822259     2.3682706335
C     0.8880175078     3.4098783249     1.6226894793
C     3.1463538103     0.6508330311     1.759336176
C     3.7175335297     -0.0123314162     0.6518301145
C     3.4587176146     0.4412211423     -0.6662984946
C     2.7227812669     1.9761425023     1.5889739456
C     2.0319646763     1.8892604549     -2.0107884126
C     0.8889211984     2.830767537     -2.0215839448
C     0.4996651269     3.5317470344     -0.8144302794
C     1.4021961077     3.4402698512     0.3117322523
C     2.861001065     1.7529649265     -0.8702043319
C     2.5910140999     2.5592619464     0.2759260777


