60

 C     -0.3479985655     4.537897954     0.2016667486
C     -1.4604260041     3.9284583553     0.8344878677
C     -0.9447838133     3.1428050034     1.9049874205
C     0.8663848783     4.1307977948     0.8452746371
C     0.5258026567     3.2957657363     1.9484190223
C     1.7853016005     3.6523592151     -0.157771023
C     -0.2876300704     4.0984027419     -1.1555623563
C     1.0501585364     3.6417782965     -1.4453991165
C     -2.1760210355     3.1903862877     -0.2018970896
C     -1.4252705887     3.2796295326     -1.450350456
C     -2.8100387521     2.0024086622     0.1219411098
C     -1.5622087426     1.8863120613     2.27315465
C     -2.6385248157     1.3963831604     1.4440758918
C     -0.7574862843     0.9302645016     2.9259358369
C     1.3329337662     2.1666537631     2.274713729
C     0.6975613137     1.0539754908     2.9248212984
C     2.5967431389     2.5721042676     0.1512658204
C     2.4596331343     1.8735729806     1.4210693262
C     2.9012337222     1.5603829224     -0.8503921259
C     1.1821475497     2.5573709829     -2.293635658
C     2.2090557157     1.5415871476     -2.0602287735
C     -1.2911953012     2.1237174813     -2.2908768416
C     0.0116154948     1.8631927693     -2.8162111663
C     -2.9327216529     0.9447025482     -0.8319809776
C     -2.1725842605     0.965858568     -2.0490388358
C     -2.876032257     0.0123287616     1.309877913
C     -3.1372134375     -0.2788906954     -0.10111195
C     -1.0872231659     -0.4688771619     2.9088314207
C     -2.174684251     -0.9563876081     2.1056952241
C     1.2248966641     -0.2526834558     2.8695976833
C     0.1268572538     -1.216587556     2.963272786
C     2.8730487211     0.522134704     1.2265751266
C     3.1544004733     0.3166133937     -0.187591939
C     2.340779017     -0.5476993578     2.0128300134
C     2.8928238041     -0.9277924362     -0.8024857243
C     1.7570475762     0.288768275     -2.5994202329
C     0.4181307018     0.517499569     -3.1153132851
C     2.1191582225     -0.9687268695     -2.0435045744
C     -1.8084397919     -0.3024674472     -2.5577044628
C     -0.4973587222     -0.520673143     -3.1110060265
C     -2.8565954628     -1.5391973146     -0.6493922308
C     -2.2203975158     -1.552224826     -1.9406906753
C     -2.1023622387     -2.2840484637     1.6327129585
C     -2.548362124     -2.6176346179     0.2702515807
C     0.2200387913     -2.5472144193     2.4745080943
C     -0.9910851084     -3.1515358135     1.9543581791
C     2.4252323285     -1.8451968932     1.4787302967
C     2.785358216     -2.0406854236     0.0961314344
C     1.4794366926     -2.9217196976     1.8534681444
C     2.1883729214     -3.2422859262     -0.3182304836
C     1.503338847     -3.8776628182     0.8255032417
C     1.2227393675     -2.1115203897     -2.2876507505
C     -0.0770170196     -1.8587438369     -2.7933170923
C     -1.2375427782     -2.5473400772     -2.2302408135
C     1.3624908603     -3.3119057358     -1.4680091942
C     -1.8372746403     -3.7376268164     -0.1548087246
C     -0.9188616966     -4.1357012696     0.9121438607
C     0.3097212144     -4.4269048225     0.323444287
C     -1.0779474236     -3.6771266231     -1.3946434709
C     0.2328445398     -4.1270512126     -1.1312795528


