60

 C     1.3813476578     -4.4566368525     -0.4692484909
C     0.5577460408     -4.4826148951     0.7358839689
C     -0.788687107     -4.5811337129     0.3174195656
C     0.4733379871     -4.077442523     -1.5799502596
C     -0.8228427371     -4.2279433459     -1.1635031537
C     0.8947440851     -2.7874869412     -2.1226125912
C     2.2733366756     -3.4187541671     -0.3318055368
C     2.0951255163     -2.4703455773     -1.4291075944
C     0.9567599315     -3.4052895848     1.6130683085
C     2.1586609452     -2.8361576934     1.0108416119
C     -0.0130391963     -2.4868105582     2.1663783783
C     -1.7323144444     -3.7918697829     0.9228582442
C     -1.396974034     -2.7747638511     1.895259461
C     -1.7859521046     -3.1730129926     -1.3573312819
C     -2.4982410793     -3.0993525571     -0.1305780096
C     -0.0334062336     -1.7113569188     -2.3823028306
C     -1.4270110245     -1.9185656139     -2.0078978053
C     0.5005289578     -0.3497937221     -2.4429245691
C     2.5287365574     -1.1591604406     -1.2649167544
C     1.8902997216     -0.1287366581     -2.0627014207
C     2.5107982169     -1.5236363395     1.1881161161
C     3.0839674247     -0.802935181     0.0260589653
C     0.3714401998     -1.0732423478     2.4055241175
C     1.7293508797     -0.6844871331     2.1126667079
C     -0.6265721409     -0.0069160608     2.4973240526
C     -2.2604511713     -1.6617095013     1.6459256847
C     -2.9423293497     -1.8894441693     0.3607956477
C     -1.9696796688     -0.3395300084     2.060361754
C     -2.2166021805     -0.745118579     -1.7023191492
C     -3.0496641249     -0.7949925808     -0.5117192155
C     -0.3951649569     0.8032347684     -2.4701511567
C     -1.7853832811     0.5787118818     -2.1407116462
C     0.1750448584     2.1705123554     -2.3172854722
C     2.3932894584     1.1765493059     -1.8868091979
C     1.5354764589     2.330224389     -2.0034876766
C     3.4938170544     0.5094215682     0.2054655774
C     3.3381054699     1.437807508     -0.8551253892
C     2.1003996367     0.6720083341     2.2274843514
C     3.1981160918     1.2074460885     1.4528959489
C     -0.2490526428     1.4111895987     2.4778805487
C     1.1341570887     1.7115240971     2.4513016725
C     -1.1902914373     2.4688748982     2.0128942292
C     -2.8005682706     0.6580605998     1.4898559513
C     -3.3777872     0.3963453513     0.1768877468
C     -2.4932051528     2.0620222827     1.5609766733
C     -2.5902887713     1.7077948369     -1.7025096192
C     -3.4035042529     1.5802032884     -0.5254946137
C     -3.0905974306     2.676773488     0.4022145563
C     -0.6897533486     3.2658379012     -1.8913484638
C     -2.0373617186     3.0121073404     -1.6389902699
C     -2.4113137341     3.6402504147     -0.3149766527
C     -0.6409185566     3.6529804654     1.3821275441
C     -0.2287427376     4.1781690316     -0.8496947352
C     -1.2582052128     4.1921870636     0.211400065
C     2.0004392819     3.3199056804     -0.9965781607
C     3.0448961853     2.7423635424     -0.2804100545
C     2.9099301119     2.5451816492     1.1444557417
C     1.6594264675     2.9128213255     1.7993250116
C     1.018967557     4.0698277122     -0.2825498696
C     0.7976585832     3.768903523     1.1613934387


