60

 C     1.4970797875     4.0368930672     -0.9658507414
C     0.2152540108     4.2590149055     -0.4113350974
C     0.2342284075     3.8369346676     0.9634581909
C     2.3388960522     3.4327625313     0.023772873
C     1.5704872281     3.2812448174     1.2147069885
C     2.9369384222     2.253861528     -0.5472500156
C     1.357608539     3.0750402656     -2.0151056437
C     2.2772495926     1.9967566057     -1.8439104889
C     -0.76807611     3.6640068564     -1.293219726
C     -0.0273576752     2.8199136615     -2.2755459962
C     -1.9423851488     3.2063648745     -0.7709810134
C     -0.9246116139     3.2267854902     1.5346414113
C     -2.1135887404     3.1214942792     0.6960047497
C     -0.7305971209     2.1830293868     2.4895543625
C     1.7388831649     2.0963674239     2.033721316
C     0.5889055004     1.619090433     2.7337904443
C     3.233112684     1.1873326995     0.275037054
C     2.7127191543     1.1290635306     1.6223782095
C     3.2271078802     -0.1467837815     -0.2624251099
C     1.9073438381     0.6914370344     -2.207802697
C     2.6262154983     -0.4129339843     -1.5413229218
C     -0.4558837458     1.5216726294     -2.5948344873
C     0.5512581722     0.4403035264     -2.7118117451
C     -2.5874211353     2.0496201715     -1.3695724176
C     -1.8554524699     1.1770280036     -2.2581013962
C     -3.0434191664     2.101331465     0.9143050218
C     -3.3995555053     1.4851047446     -0.365696319
C     -1.6745331296     1.1039847155     2.6344536748
C     -2.8191171902     1.0337570134     1.8313346663
C     0.4391573237     0.2258942815     3.0424424459
C     -0.9681900627     -0.1073627661     2.951673816
C     2.5598584232     -0.267185835     1.9308037506
C     3.0204193442     -1.0656367292     0.8105991229
C     1.4374789719     -0.7272971003     2.6782864809
C     2.5916911079     -2.4051679678     0.5839781609
C     2.2426861904     -1.7279893554     -1.7869473476
C     2.4024581006     -2.7903738423     -0.7984249121
C     0.1103782372     -0.9227806604     -2.8188787613
C     1.0391436919     -2.0092504826     -2.5567585738
C     -2.2220925727     -0.1771473481     -2.2521232834
C     -1.2877364285     -1.2224194067     -2.6267910477
C     -3.5242881311     0.0921230539     -0.1955543388
C     -3.1526416792     -0.2327348051     1.1812985839
C     -3.0779363831     -0.7281049007     -1.2270291987
C     -1.3894494436     -1.3653031847     2.4719432494
C     -2.4714563151     -1.4360389208     1.4713777029
C     1.0173891155     -2.0719011076     2.4707892977
C     1.721088257     -2.9860865578     1.5708543925
C     -0.3922793129     -2.3982223854     2.4574779144
C     0.7835508555     -3.9814242998     1.1837102518
C     -0.546190481     -3.5372614415     1.6496176006
C     1.4674331475     -3.8016867966     -1.1424428035
C     0.6019726878     -3.2955074749     -2.2040669891
C     0.6403494528     -4.3632135339     -0.1459459601
C     -1.6799206343     -2.4232454892     -1.9728663635
C     -2.625539129     -2.0523668298     -0.9334053116
C     -2.3866787265     -2.4631586076     0.410320336
C     -1.4731026846     -3.5777697188     0.5750325136
C     -0.7622438889     -3.4854294392     -1.7697326742
C     -0.7865978143     -4.1664288097     -0.541631601


