60

 C     -4.4055912948     0.8478260423     0.4503811425
C     -4.2491752195     -0.584514943     0.2263569072
C     -3.4689067482     -1.1457338511     1.2739977405
C     -3.6454150952     1.1736942882     1.617318282
C     -3.2449976925     -0.0592720429     2.2437586869
C     -2.6315336313     2.1400815758     1.3157555503
C     -3.7948195121     1.4819879482     -0.6382709483
C     -2.6850041911     2.2953432714     -0.1237819668
C     -3.852497604     -0.7967802858     -1.1263091677
C     -3.5088336991     0.51700094     -1.6732469257
C     -3.0124960768     -1.8825042413     -1.4040623906
C     -2.3766379629     -2.0679980025     0.9934985923
C     -2.2485635486     -2.5139225408     -0.3372616798
C     -1.1636319038     -2.0704932392     1.8423564142
C     -2.1099482569     -0.0529819759     2.9923464387
C     -1.1764211857     -1.2024251952     2.9731179188
C     -1.3810432616     2.1060072012     2.01036476
C     -1.2942845323     1.1496711389     3.0745910821
C     -0.1556582156     2.4754358965     1.3067576169
C     -1.5128495815     2.4628661637     -0.8634151589
C     -0.2619198474     2.7616761392     -0.1156155661
C     -2.364831772     0.6919176224     -2.4877157178
C     -1.4428323445     1.8048683991     -2.1835211484
C     -2.1346748878     -1.7561103017     -2.503162603
C     -1.7903714198     -0.4995667295     -3.0545080609
C     -0.9293343637     -2.8586812289     -0.8729407834
C     -0.9049065036     -2.472952349     -2.2315822861
C     0.1556582156     -2.4754358965     1.3067576169
C     0.2619198474     -2.7616761392     -0.1156155661
C     1.3810432616     -2.1060072012     2.01036476
C     0.0280438656     -0.7290933329     3.5025425658
C     -0.0280438656     0.7290933329     3.5025425658
C     1.2942845323     -1.1496711389     3.0745910821
C     1.1636319038     2.0704932392     1.8423564142
C     1.1764211857     1.2024251952     2.9731179188
C     2.1099482569     0.0529819759     2.9923464387
C     2.3766379629     2.0679980025     0.9934985923
C     0.9293343637     2.8586812289     -0.8729407834
C     2.2485635486     2.5139225408     -0.3372616798
C     -0.1905233197     1.7915694415     -2.8060125977
C     0.9049065036     2.472952349     -2.2315822861
C     -0.3742977889     -0.5683401614     -3.4017366971
C     0.1905233197     -1.7915694415     -2.8060125977
C     0.3742977889     0.5683401614     -3.4017366971
C     1.5128495815     -2.4628661637     -0.8634151589
C     1.4428323445     -1.8048683991     -2.1835211484
C     2.6315336313     -2.1400815758     1.3157555503
C     2.6850041911     -2.2953432714     -0.1237819668
C     3.2449976925     0.0592720429     2.2437586869
C     3.4689067482     1.1457338511     1.2739977405
C     3.6454150952     -1.1736942882     1.617318282
C     3.7948195121     -1.4819879482     -0.6382709483
C     4.2491752195     0.584514943     0.2263569072
C     4.4055912948     -0.8478260423     0.4503811425
C     3.0124960768     1.8825042413     -1.4040623906
C     2.1346748878     1.7561103017     -2.503162603
C     1.7903714198     0.4995667295     -3.0545080609
C     2.364831772     -0.6919176224     -2.4877157178
C     3.852497604     0.7967802858     -1.1263091677
C     3.5088336991     -0.51700094     -1.6732469257


