60

 C     1.3216872071     -4.076862916     0.3819134561
C     1.8371082144     -3.3228850116     1.4016782379
C     2.944549332     -2.5020386819     0.8821045838
C     2.0142686265     -3.6268544591     -0.8673066249
C     2.9071501114     -2.5529924709     -0.5498419758
C     1.0198250545     -3.4235024707     -1.7921018013
C     -0.096612989     -4.0768773856     0.1532942812
C     -0.2662579653     -3.8785032707     -1.2587725566
C     -0.9678557464     -3.3871080058     1.0663187151
C     1.01717225     -2.4714772373     2.2367143223
C     -0.3968062262     -2.4834732823     2.0961719572
C     2.9380304937     -1.2898846481     1.5635434773
C     1.7188098462     -1.2275387639     2.3961303976
C     3.3290998604     -0.156789225     0.862119231
C     2.8409926071     -1.3059100118     -1.2828688859
C     3.293263525     -0.1659508455     -0.5747878451
C     0.821378865     -2.1387210128     -2.4445219111
C     1.7318245839     -1.0739886718     -2.2285131422
C     -1.2436869709     -2.9999797146     -1.7492994073
C     -0.6014964571     -1.9073786269     -2.4869973864
C     -2.216555225     -2.9793690658     0.5046938025
C     -2.3204373547     -2.6885733908     -0.9348901952
C     -3.0229384832     -2.0565254424     1.1682762758
C     -1.1092456088     -1.2580470538     2.4928366195
C     -2.5116198309     -1.1840673343     2.1619851154
C     1.0624029499     0.0095583489     2.585460446
C     -0.386876388     -0.0032718527     2.6887782243
C     2.900654753     1.1350348436     1.3022660077
C     1.7834858618     1.2389958506     2.1892223291
C     2.9813739683     1.178000456     -0.9932651083
C     3.001757862     2.0287589047     0.1758238511
C     1.2290648149     0.2804869324     -2.4673887461
C     2.0284962113     1.4308036634     -2.023952908
C     -1.143118087     -0.6082388324     -2.4862636232
C     -0.1969802162     0.476777656     -2.6770628833
C     -3.0282111318     -1.4516436992     -1.1105415305
C     -3.6832280625     -1.2002578096     0.1537365476
C     -2.4576164638     -0.3716914598     -1.8410112952
C     -3.1653118229     0.0911800052     1.96262913
C     -3.8429867446     0.0532368409     0.6540157053
C     -1.0895417768     1.2834124572     2.48126671
C     -2.4562454222     1.2689135492     1.999310392
C     1.0660288176     2.4767134481     2.1419679094
C     -0.3844873553     2.454841117     2.200222032
C     2.3190913652     3.2509537581     0.1768903383
C     1.4435762405     3.5217790674     1.2795376289
C     1.4654847427     2.7576088518     -2.0667621759
C     1.7075634979     3.7012466146     -1.0256178383
C     -0.72940158     1.8075267182     -2.5922231886
C     0.0905852701     2.920579668     -2.4668005296
C     -2.7877448607     0.9914911431     -1.4037453096
C     -3.4169135671     1.1867272454     -0.1122360968
C     -2.7920746546     2.0830764293     0.8014172487
C     -1.9766594588     2.0510992517     -1.8411523686
C     -0.8893703145     3.4992208869     1.2603753108
C     0.2342583324     4.1518397894     0.74840863
C     0.4135072445     4.3155576875     -0.6648153215
C     -0.5568607225     3.8537117445     -1.5409697733
C     -1.9669311651     3.131528354     0.3701216067
C     -1.7584197572     3.2397417701     -1.0555199925


