60

 C     -0.3081051869     4.6475598415     1.406669185
C     0.9550497622     4.6755775754     0.8323672745
C     0.842994208     4.4265784665     -0.6161241874
C     -1.2312128689     4.3456930617     0.3437422785
C     -0.5390914751     4.2178182905     -0.943869055
C     -2.0843627099     3.2950527198     0.7753535528
C     -0.3551683057     3.4839839137     2.306307669
C     -1.4835611024     2.6918496143     2.0059183347
C     1.7419846743     3.6031021377     1.3692646012
C     0.9309046531     2.8397737068     2.3058557298
C     1.8087651086     3.4567946855     -0.9816186882
C     2.3732895223     2.9133969778     0.3017852236
C     1.5037285653     2.5331156104     -1.9787598533
C     -0.9006349791     3.1415237218     -1.8337892109
C     0.1435485824     2.3873267072     -2.4675192068
C     -2.5961933216     2.4280007813     -0.1628038883
C     -2.0723030255     2.373281933     -1.5319789902
C     -2.9916790727     1.1095167803     0.2387605715
C     -1.4489722724     1.2792892915     2.1448273891
C     -2.4367730994     0.493955652     1.4034276396
C     1.0167781035     1.427089948     2.3108759782
C     -0.1903266264     0.6245915692     2.4555544498
C     2.635160389     1.5488744729     0.4161037804
C     2.098677683     0.8032547555     1.5600746892
C     2.136654301     1.2469418746     -1.9975934077
C     2.8214564874     0.7956056153     -0.830951905
C     -0.0071290165     0.9996463605     -2.8179996099
C     1.2525133592     0.3106973511     -2.6252577059
C     -2.2344130204     1.0247559006     -1.960112369
C     -3.0421553653     0.3385264913     -0.9594272326
C     -1.196426964     0.2602476482     -2.6034816724
C     -3.0626596493     -1.0150198322     -0.8949792871
C     -2.4090283128     -0.9384097398     1.4782977964
C     -3.0301727659     -1.6557916429     0.401724832
C     -0.09941249     -0.8233633094     2.4299399596
C     -1.3044408681     -1.6145251309     2.1893726385
C     2.2364992671     -0.6088434304     1.6089397406
C     1.2184945276     -1.4333583345     2.258377257
C     3.0584670686     -0.5568125545     -0.7280804228
C     3.0254587932     -1.2192351496     0.556223056
C     1.3410545845     -1.0953745153     -2.4233168472
C     2.4948404572     -1.5153002347     -1.678290774
C     -1.1378608269     -1.209905821     -2.4490868017
C     -2.257610059     -1.8296845522     -1.8115360941
C     0.1415772554     -1.9299395771     -2.3807725376
C     -2.7165692804     -3.0100242591     0.1491667998
C     -2.1632137271     -3.1018416593     -1.2340563304
C     -1.1710639126     -3.0321373994     2.0384521318
C     -1.9165643901     -3.7302642441     0.9879838406
C     1.2995067803     -2.8597327234     2.1027314697
C     0.1196612834     -3.6191932598     2.0463640974
C     2.9747862959     -2.5980697879     0.309951863
C     2.5622074794     -2.7872885967     -1.1020261977
C     2.2046653453     -3.4338743048     1.0963168678
C     0.2258434429     -3.2792781426     -1.7571387459
C     -0.9739293177     -3.8487538125     -1.1889476366
C     -0.9507384966     -4.4591922421     0.1584685386
C     0.2279996335     -4.5370406319     0.8612819115
C     1.473148606     -3.6826393719     -1.1150594669
C     1.4460563888     -4.2985290959     0.2240971773


