60

 C     0.0558221751     -4.4161719519     -0.1238880473
C     -0.5043389278     -3.9727391522     -1.3255920277
C     -1.8418831241     -3.4390004649     -1.0385727851
C     -0.8563256514     -4.059256953     0.9831568565
C     -1.9996790438     -3.4543113821     0.3910451557
C     -0.0853496053     -3.3047851542     1.9148878638
C     1.3588717642     -4.0030236979     0.2254311535
C     1.2976815541     -3.4340782392     1.5626409863
C     2.112952838     -3.1283171921     -0.6039503272
C     0.1853014443     -3.044308971     -2.1644673938
C     1.5346038205     -2.6443916962     -1.8356729017
C     -2.0170742919     -2.250024162     -1.7575842985
C     -0.7785639336     -2.0095067937     -2.4995262323
C     -2.7203525334     -1.1283873108     -1.1938051987
C     -2.5673139842     -2.3225185401     0.9892844238
C     -3.1101012068     -1.2743488539     0.1778683574
C     -0.5718738806     -2.0168552108     2.4518697814
C     -1.9044281053     -1.6624879392     2.105598025
C     0.3635688563     -0.9396570068     2.7481121934
C     2.1202586448     -2.3088629169     1.5906366277
C     2.7368119828     -2.1552993006     0.2756743933
C     1.7636749066     -1.1313725392     2.3265217927
C     3.1640867341     -0.8770907772     -0.1679257753
C     1.9253081782     -1.3460031614     -2.2663776742
C     2.8241984366     -0.5020071366     -1.5078819559
C     -0.4012100548     -0.6966042991     -2.8613469083
C     1.0030024806     -0.4557790034     -2.902373379
C     -2.4850684209     0.2143639799     -1.728921722
C     -1.3254557079     0.4337958474     -2.6194948773
C     -2.9765993001     1.3201050084     -0.9878508075
C     -3.2004281806     -0.0995703934     1.0036682367
C     -2.3542794957     -0.295049675     2.149257674
C     -3.3267289226     1.1429047726     0.4187159763
C     -0.1355923891     0.4352320822     2.9270437876
C     -1.5243125161     0.7585158481     2.6160981233
C     0.7973507804     1.5142563818     2.8394888229
C     2.5748528199     -0.0059275289     2.0695980168
C     3.260029895     0.1637245773     0.7954817261
C     2.1354191559     1.2703609427     2.4710388249
C     3.1564291447     1.5549500589     0.4221303144
C     2.5676379699     2.2499821952     1.514650616
C     2.6237030796     0.8867944923     -1.8696427371
C     1.5165526563     0.8920775261     -2.7859052152
C     2.7741274997     1.9384943229     -0.9137296252
C     -0.8071367037     1.7360920886     -2.7560827742
C     0.6362647472     1.9524605271     -2.8384045011
C     -2.4156102281     2.6543142852     -1.1166608528
C     -1.3501730305     2.8692492875     -2.005790757
C     -2.8129166201     2.2528986604     1.133224223
C     -1.8713056747     2.08841462     2.1683211062
C     -2.3340065549     3.2465708665     0.1836058301
C     0.4460325731     2.8323886701     2.2728468471
C     1.5522699864     3.2371530877     1.3724033012
C     -0.8480529401     3.1176483248     1.9419448926
C     -1.1435235508     3.82145477     0.6751396302
C     1.9223152187     3.1059725341     -1.0550165576
C     0.9525538346     3.1230716948     -2.0709798371
C     -0.2806391872     3.7169132111     -1.5978527934
C     1.282156287     3.7576813982     0.1156919013
C     -0.0935157984     4.0898953417     -0.2377790988


