60

 C     1.4225752955     -4.2094820909     1.0182786102
C     0.4267073986     -3.7384100667     1.9830937883
C     -0.84011775     -3.881765337     1.410945487
C     0.7567351258     -4.3328750998     -0.2586523067
C     -0.6148417663     -4.2082724665     -0.0443900737
C     1.3505600447     -3.4077802549     -1.2086474016
C     2.3544231185     -3.1812342185     0.8672864929
C     2.4511992572     -2.7703173215     -0.5202512546
C     0.7948557466     -2.4329723891     2.4550929706
C     2.0746964044     -2.1224723203     1.8025351851
C     -0.1694002774     -1.3856907358     2.5837179286
C     -1.7977633038     -2.8640309911     1.4770462009
C     -1.5416768461     -1.6120579998     2.149638316
C     -1.4460800959     -3.3580956218     -0.8136107477
C     -2.3775269458     -2.7672082419     0.1352625754
C     0.523152054     -2.6028428204     -2.0733409023
C     -0.9317576953     -2.5309751405     -1.8721342308
C     1.1452068594     -1.4637064612     -2.6182256804
C     2.8655529537     -1.4642379627     -0.838982208
C     2.4076685332     -0.9851288801     -2.1032928838
C     2.4402224436     -0.8098598587     1.5198984202
C     3.036409438     -0.467060623     0.2190595593
C     0.3381062654     -0.0161521784     2.6397440898
C     1.7276333297     0.2205387148     2.2560316367
C     -0.585314326     1.0953372831     2.6045635911
C     -2.4063995059     -0.4752693969     1.8279336921
C     -1.9629943524     0.8845985515     2.1330079393
C     -3.1109000248     -1.6951315572     -0.208996003
C     -3.3748302732     -0.6517389326     0.7736430338
C     -1.6569550262     -1.2954903999     -2.2011889304
C     -2.8834961354     -1.0500497574     -1.499795712
C     0.3926414632     -0.2933009558     -3.0824054939
C     -0.9786935394     -0.1183625515     -2.7589098046
C     2.5035532376     0.3849237708     -2.4169345797
C     1.2573226976     0.8102235501     -3.0798763004
C     3.1571806232     0.925037429     -0.1280063839
C     2.8892634005     1.3418162315     -1.5018488355
C     2.194946893     1.5304965464     2.0919794238
C     2.9099142255     1.9021971323     0.8731356385
C     -0.0302151889     2.4256771114     2.5404785882
C     1.357052507     2.6212602985     2.4379407713
C     -0.6561188261     3.4621975541     1.677873
C     -2.595149743     1.9801046703     1.4426728889
C     -1.805464083     3.1463060561     1.0347980402
C     -3.8229248086     0.4490556555     0.0181881841
C     -3.399274358     0.2419833399     -1.3851056224
C     -3.468185868     1.7330879532     0.3652040388
C     -1.4315123366     1.2602145863     -2.4687611563
C     -1.8813331738     3.2630426343     -0.4342090039
C     -2.71182493     1.4049039121     -1.8422381435
C     -2.8882566024     2.3972451559     -0.8322405626
C     0.8992588914     2.0690164612     -2.5901920758
C     2.0135720938     2.5217704187     -1.7477035297
C     -0.4597018962     2.3481530381     -2.2524875284
C     -0.6690500209     3.3567434215     -1.2023649445
C     2.5114275572     3.2475811585     0.5186109108
C     1.6327566334     3.7057188201     1.4958430275
C     0.3898462017     4.0944067292     0.9087861376
C     1.8200346419     3.4438987759     -0.7689221689
C     0.4532842638     3.9244354714     -0.5085754977


