60

 C     1.8022145982     -4.233512843     0.5742365325
C     0.3997642994     -4.510917843     0.8554966363
C     -0.2544973226     -4.6690318438     -0.3921463762
C     1.89857069     -3.8660806024     -0.8413269173
C     0.6885737212     -4.1509276553     -1.4503352392
C     2.4231159526     -2.5194722579     -0.9510247991
C     2.1643276761     -3.1010991089     1.2879868727
C     2.7164506628     -2.1006783939     0.4044946189
C     -0.0955004022     -3.5213602842     1.7753023483
C     1.0478988229     -2.6546028885     2.1087561584
C     -1.3673523735     -2.8855364414     1.5744279729
C     -1.4764146217     -4.0657354035     -0.6062386693
C     -2.1054650083     -3.2454368386     0.3840284706
C     -0.0030458217     -3.1535654928     -2.2269698161
C     -1.3641203348     -3.2265660478     -1.8152950484
C     1.8453962718     -1.5537218654     -1.8292477058
C     0.5560865357     -1.8468106546     -2.450220564
C     2.2133031749     -0.1725151728     -1.5990025823
C     2.6673225811     -0.76348961     0.766121845
C     2.7845975744     0.1849714197     -0.3140197619
C     0.9237034107     -1.3043064462     2.4415243544
C     1.920396413     -0.3482891977     1.9450774353
C     -1.5641004241     -1.5392792904     2.14800755
C     -0.4240969214     -0.7993716666     2.7311370899
C     -2.6177625325     -0.7402832053     1.6498971973
C     -2.7379734788     -2.1592852608     -0.3434255892
C     -2.169777252     -2.0936523533     -1.6862861428
C     -3.0835382326     -0.9992115894     0.2985084907
C     -0.3500281501     -0.7167839924     -2.6298234895
C     -1.7324640264     -0.8399143672     -2.1860765118
C     1.5869506706     0.8795531687     -2.3726672361
C     0.1995890165     0.6165853529     -2.7866696859
C     2.0038595736     2.224188798     -2.1153039318
C     2.9084957697     1.5378117941     0.0465505686
C     2.7192896958     2.5201807325     -0.9190234129
C     1.7604281677     1.0580887735     2.1979488288
C     2.3973572326     2.0107747779     1.3444354274
C     -0.5570062777     0.5552350326     3.0328861262
C     0.576594869     1.491663827     2.8918548448
C     -2.6696865442     0.6828918979     1.8315932936
C     -1.7482558464     1.3011769442     2.6786591688
C     -3.0768593608     0.249502356     -0.4019981794
C     -2.4206393743     0.3400369873     -1.6694957589
C     -2.985410531     1.3232717098     0.5737059457
C     -0.7097844882     1.7200399958     -2.7732288553
C     -1.9358166451     1.6008427195     -2.0360811354
C     1.0705812154     3.3204381632     -2.2577542058
C     -0.2412287711     3.053436174     -2.5372322122
C     2.1073529898     3.6841980141     -0.2459628635
C     1.8737070989     3.3369136494     1.1404679709
C     1.1215349587     4.2006626421     -1.0513041754
C     0.0714160158     2.7800317823     2.6579895881
C     -1.3614578944     2.6345585925     2.404204589
C     0.6186183525     3.675659587     1.7003068639
C     -2.4548788515     2.5946085547     0.2215465333
C     -2.0869995103     2.7756775125     -1.163933836
C     -1.0848517631     3.685952469     -1.5055496749
C     -0.2340016289     4.3343417461     -0.5391526861
C     -1.6732921718     3.3125806686     1.2086085499
C     -0.4811916494     4.0955627742     0.8210349903


