60

 C     0.9238610534     4.6352264237     0.7003683488
C     0.9238610534     4.6352264237     -0.7003683488
C     -0.4163285828     4.3603234181     -1.185342465
C     -0.4163285828     4.3603234181     1.185342465
C     -1.2715559924     4.2851381282     0.
C     -0.3051411826     3.1944126477     1.9776987369
C     1.8701764507     3.6723290813     1.1868228141
C     1.1142996673     2.7741721612     1.9791565924
C     1.8701764507     3.6723290813     -1.1868228141
C     2.5274428945     3.1000131405     0.
C     -0.3051411826     3.1944126477     -1.9776987369
C     1.1142996673     2.7741721612     -1.9791565924
C     -1.3220418311     2.1779409581     -2.0122934764
C     -2.2658236848     3.3537994713     0.
C     -2.4500688198     2.4663121499     -1.1614137499
C     -1.3220418311     2.1779409581     2.0122934764
C     -2.4500688198     2.4663121499     1.1614137499
C     -0.9847842576     0.7828768577     2.3055016857
C     1.4316045021     1.3934312456     2.0411536805
C     0.4400684342     0.3924709967     2.3833559929
C     2.8431832232     1.7734833123     0.
C     2.5743724016     0.9929652208     1.231456004
C     1.4316045021     1.3934312456     -2.0411536805
C     2.5743724016     0.9929652208     -1.231456004
C     -0.9847842576     0.7828768577     -2.3055016857
C     0.4400684342     0.3924709967     -2.3833559929
C     -1.9336905867     -0.2688871627     -1.9990105073
C     -3.257300025     1.4101532423     -0.7449843378
C     -3.257300025     1.4101532423     0.7449843378
C     -3.0662825711     0.1033845463     -1.1773337997
C     -1.9336905867     -0.2688871627     1.9990105073
C     -3.0662825711     0.1033845463     1.1773337997
C     -3.3215160145     -0.7178051778     0.
C     -1.5558139762     -1.6858486701     1.9971765318
C     0.8214577081     -1.0121016347     2.3486340265
C     -0.1834169383     -2.0881686603     2.276856476
C     2.9322037698     -0.3304980063     1.237183104
C     2.1459520974     -1.3230794468     1.8969623142
C     2.9322037698     -0.3304980063     -1.237183104
C     3.4400944906     -0.9407451486     0.
C     0.8214577081     -1.0121016347     -2.3486340265
C     2.1459520974     -1.3230794468     -1.8969623142
C     -1.5558139762     -1.6858486701     -1.9971765318
C     -0.1834169383     -2.0881686603     -2.276856476
C     -2.9688340284     -2.0037606182     0.
C     -2.3425531979     -2.5836263387     1.1812935345
C     -2.3425531979     -2.5836263387     -1.1812935345
C     -1.8610823843     -3.8326335432     0.7604032736
C     -1.8610823843     -3.8326335432     -0.7604032736
C     0.2436366882     -3.4109454732     1.8878841531
C     -0.6339558877     -4.3045550236     1.1871087324
C     2.4595942333     -2.5873797617     1.2488648713
C     3.1959302422     -2.2865589368     0.
C     2.4595942333     -2.5873797617     -1.2488648713
C     1.5530739378     -3.6020000632     1.2586370183
C     0.2436366882     -3.4109454732     -1.8878841531
C     -0.6339558877     -4.3045550236     -1.1871087324
C     0.0748910072     -4.8432048317     0.
C     1.5530739378     -3.6020000632     -1.2586370183
C     1.3505059561     -4.3729096682     0.


