60

 C     -2.9747114787     -3.166245292     0.3558420346
C     -1.7303797187     -3.8259908237     0.2727574592
C     -0.9178293678     -3.4660364388     1.3810789574
C     -2.9372233794     -2.2559249702     1.4790198134
C     -1.6445462558     -2.3652478086     2.0649694599
C     -3.2777096532     -0.9530466007     1.0201280444
C     -3.0518810726     -2.3362784869     -0.8006319257
C     -3.4175506601     -1.0237300946     -0.4370433095
C     -1.1750041548     -3.6247877205     -1.0742872685
C     -1.9284123555     -2.5329603077     -1.6884587166
C     0.1710117337     -3.6661037036     -1.232774083
C     0.4962157866     -3.4488339108     1.2477276599
C     1.0599167572     -3.8161475831     -0.0545551581
C     1.2087413586     -2.4828623554     1.9965485796
C     -0.9193659087     -1.2084870792     2.5367901028
C     0.4858585838     -1.3627065886     2.6121500064
C     -2.7097816466     0.223921435     1.6021566539
C     -1.4793986054     0.1394698096     2.3835527394
C     -2.9697477658     1.3893631973     0.8746801159
C     -2.9881680086     0.0565195436     -1.2175486022
C     -3.2158983858     1.3017350031     -0.5661704529
C     -1.2545223983     -1.4097484633     -2.2555155278
C     -1.8552472827     -0.0793887805     -2.1230565245
C     0.8266272255     -2.7454562148     -2.1495107478
C     0.188861389     -1.5145826654     -2.5218619129
C     2.3204690039     -3.373731343     -0.4301226857
C     2.2028789176     -2.7837834186     -1.7965036562
C     2.4920044673     -1.9880593936     1.5825638955
C     3.083415964     -2.455205123     0.3621164912
C     1.33141915     -0.2243451649     2.6104863871
C     2.5817800736     -0.604557247     1.9416673829
C     -0.629891438     1.3153256949     2.4500682525
C     0.8092358721     1.0909017776     2.5775050302
C     -2.3128344126     2.6437895391     1.143397292
C     -1.1060775287     2.6281949742     1.9213719511
C     -2.7516918422     2.4649443017     -1.123897941
C     -2.4312390105     3.4266138094     -0.0611518594
C     -1.0660765996     1.115630264     -2.3804179485
C     -1.6552139497     2.4067678271     -2.0607637268
C     1.0082125209     -0.2982528063     -2.5758924362
C     0.3953137095     1.0239244147     -2.4527946188
C     2.9679722594     -1.6536009317     -1.8496439004
C     3.6237073246     -1.4751468894     -0.5302438726
C     2.3991802487     -0.4079738717     -2.2434942823
C     3.2011966906     0.3337450146     1.0792357471
C     3.5994556532     -0.118384333     -0.2354077938
C     2.9798068496     0.5809533414     -1.3743314895
C     1.7268627979     2.1071545286     2.0960951639
C     2.7987391996     1.676496193     1.1805231784
C     -0.1301083995     3.6472807308     1.5707007223
C     1.2744313824     3.3540408619     1.6996305072
C     -1.3454447208     4.1585677624     -0.5009250893
C     -0.8342363834     3.5178873124     -1.7645322599
C     -0.2724364063     4.3980575109     0.3453325008
C     1.2019475605     2.1510760375     -1.9748178596
C     2.4419269826     1.8566668929     -1.2454440175
C     2.6924090186     2.5093181838     0.0250384194
C     1.9110998273     3.6321081063     0.4026162754
C     0.5569253794     3.3996059605     -1.6545268105
C     0.9450051018     4.1175468821     -0.4394243463


