60

 C     1.2369780504     4.2039607224     0.1519343895
C     -0.0705553116     4.3277314243     0.4775035545
C     -0.8754278698     4.152588605     -0.7752823062
C     1.3093180036     3.8426675089     -1.3029101381
C     -0.0231835502     3.5451301466     -1.7657665098
C     2.3168173627     2.9371708668     -1.4271311597
C     2.0831875519     3.2852064524     0.880614526
C     2.9398347628     2.7125064916     -0.1011123596
C     1.4916199855     2.4095952337     1.8810978465
C     -0.7003268544     3.5202727764     1.5240932783
C     0.0389959338     2.4483427885     2.1435617409
C     -2.0432153597     3.5679691641     -0.4122553391
C     -2.0096341429     3.2715889742     1.0543120574
C     -2.5187241874     2.3991492929     -1.0628313073
C     -0.3354504366     2.2212286616     -2.2538002426
C     -1.6655059481     1.6736978928     -1.9645578688
C     2.0993381246     1.6483490256     -2.0155016127
C     0.7844438262     1.2517309656     -2.4222730809
C     3.3537222556     1.3860416299     -0.045505206
C     2.9328552966     0.7181318423     -1.2882244609
C     2.1504186137     1.1685032968     2.0694157524
C     3.1500707727     0.6871863862     1.1477377924
C     1.4826756043     -0.0040979986     2.5935181087
C     -0.676583055     1.1935771463     2.4633123315
C     0.0751371935     -0.0491485264     2.7080996428
C     -2.6749402884     2.0770905118     1.263029034
C     -3.2356088412     1.6725149985     -0.0432712615
C     -2.0777457097     1.0533882053     2.0849054705
C     -3.5765222359     0.3758682484     -0.2540628818
C     -1.9141194422     0.2328511248     -2.10022906
C     -3.0030123628     -0.3485971361     -1.3887110621
C     0.5481118469     -0.1769218943     -2.5162907051
C     -0.8420169377     -0.6786375565     -2.5259735273
C     2.7107377426     -0.6498685142     -1.3198904801
C     1.6118982321     -1.1072156263     -2.1623490034
C     3.1056947646     -0.7387131462     1.113573602
C     2.2351310876     -1.1690134664     2.182110276
C     3.0926371959     -1.4442816401     -0.1305074089
C     1.6563260087     -2.4305278599     2.1057402782
C     -0.5701026315     -1.3839452838     2.543071259
C     0.2074100092     -2.557004664     2.2441673014
C     -2.6640406907     -0.2461054278     1.9386801231
C     -3.5444090147     -0.5160942902     0.8521259392
C     -1.917736554     -1.4588518562     2.1452967822
C     -3.0302009563     -1.75874127     -1.0319232807
C     -3.3222043097     -1.8493771444     0.3723906839
C     -2.3862485448     -2.4944246247     1.2054571731
C     -1.0786782287     -2.0761376086     -2.4401572054
C     -2.1166171382     -2.6238129859     -1.5850890242
C     1.3416519331     -2.51483854     -2.1382398671
C     0.0055763473     -2.9919068914     -2.3563845537
C     2.6804531011     -2.8018930658     -0.0766282864
C     2.068995025     -3.3125602138     1.0947798639
C     1.9375163221     -3.3629338126     -1.1801047225
C     -0.2605450917     -3.6235069135     1.3782553239
C     -1.5052128339     -3.4795602343     0.6755620365
C     -1.5032281646     -3.6763695144     -0.7712665011
C     -0.2957470219     -4.0456606845     -1.4259002757
C     0.8907150867     -4.1188872169     0.6820587665
C     0.8992754736     -4.2944046758     -0.6922743357


