60

 C     -0.6143370591     -4.2146731141     1.1047214868
C     0.4253036458     -4.1880037502     0.1496520928
C     1.5521886078     -3.4704688895     0.6747471716
C     -0.2467017738     -3.3523664967     2.174739388
C     1.1104511135     -2.9244509341     1.9618767987
C     -1.2367488065     -2.3388584085     2.2899687697
C     -1.8125932317     -3.6933198103     0.4909005729
C     -2.2696592264     -2.590365875     1.2549738909
C     -0.1356633214     -3.8044276265     -1.1342977051
C     -1.5817895366     -3.5284422647     -0.9171717255
C     0.5938744798     -2.9725228667     -1.9659466838
C     2.3378847894     -2.6532898537     -0.1886191782
C     1.8803960126     -2.4393929584     -1.5569315507
C     3.0551782615     -1.5961930325     0.4134906014
C     1.5163467598     -1.6408331532     2.3746083295
C     2.6986914368     -1.1490051964     1.7291347227
C     -0.8969517716     -1.0037332094     2.6419717018
C     0.5141997245     -0.6522742244     2.789194648
C     -1.8869441599     0.0332352527     2.3556588559
C     -2.9019897046     -1.4906328444     0.6203843154
C     -2.8944310687     -0.2021193837     1.3069525274
C     -2.1692433764     -2.4463120798     -1.5557481288
C     -2.9684061225     -1.5079596677     -0.8118100628
C     -0.0730263883     -1.9231003099     -2.7419961418
C     -1.4261139049     -1.6628765903     -2.5550933327
C     2.0510732529     -1.1720700004     -2.1829610417
C     0.825428156     -0.8314804314     -2.9074434346
C     3.480662346     -0.4069142778     -0.3411948594
C     2.8927177824     -0.1439085755     -1.6394910051
C     3.0838821594     0.2157314493     1.8336987536
C     3.6565666122     0.6483919854     0.5604498278
C     0.884631     0.7607760449     2.7652563244
C     2.1830332201     1.1750851347     2.2567712061
C     -1.5167301209     1.3748470812     2.6377775808
C     -0.1247047066     1.7280815175     2.7139186579
C     -2.1767877736     2.476287779     2.0090649227
C     -3.3542367179     0.9170445247     0.5612382872
C     -3.0347222489     2.245411749     0.9588363214
C     -2.9364907993     -0.2572329317     -1.5319466678
C     -1.8994969259     -0.3090893934     -2.5485092412
C     -3.2283879424     0.9140507941     -0.8853640281
C     0.371169768     0.5105584416     -3.0064992852
C     -1.0464366322     0.8094185983     -2.7810622587
C     2.5949245265     1.1941811035     -1.9787092056
C     1.3456511069     1.5233156369     -2.714771654
C     3.1984405862     1.9597763735     0.2773787834
C     2.3240038019     2.3641872539     1.3639844894
C     2.8372123014     2.2805561244     -1.0487715944
C     0.0691961671     3.0210027621     1.9903119901
C     -1.1738805054     3.4560457541     1.5741972402
C     1.2369461589     3.2201066622     1.1517172734
C     -2.6011493534     3.0392663064     -0.2112680707
C     -2.5803354779     2.1589686397     -1.3063137586
C     -1.4397389722     2.1075629079     -2.2030856885
C     -1.439525846     3.7777232773     0.1686231734
C     0.9309073833     2.7878515814     -2.3193586641
C     1.8091044453     3.240139758     -1.243464553
C     1.0041831049     3.7204654527     -0.2020497866
C     -0.4259765506     3.0760295481     -1.9618433281
C     -0.3710488854     3.8302189557     -0.714477971


