60

 C     -2.2358170952     -3.7641075874     0.8444062217
C     -1.1091193583     -4.2018776544     0.0758509614
C     0.0858780645     -4.0096655311     0.8341359031
C     -1.6955162678     -3.0372680599     1.9845719147
C     -0.2814228058     -3.1206656847     1.9670592536
C     -2.2844744812     -1.743605285     2.0423667541
C     -2.8924291972     -2.7964375443     0.071378257
C     -3.1100978181     -1.612951192     0.8522533827
C     -1.1785362716     -3.6531920245     -1.2669195147
C     -2.2415139622     -2.6664177963     -1.2432101745
C     0.0235738313     -3.3535772639     -1.911451648
C     1.275838236     -3.7992539841     0.1394585221
C     1.2507489027     -3.6800377142     -1.2811652865
C     2.2493301352     -2.8394179231     0.6597838112
C     0.5396754216     -1.9814533135     2.288704956
C     1.9022419935     -1.968333323     1.7353378879
C     -1.5341628906     -0.6171742069     2.4842739957
C     -0.0937100822     -0.7169709292     2.6503121675
C     -2.1045714651     0.6367579858     2.1379983698
C     -3.2358085747     -0.3787428531     0.2179560687
C     -3.0301043166     0.7556099309     1.0516381161
C     -2.0632318541     -1.3818015441     -1.7914075084
C     -2.8176924576     -0.2661708964     -1.1904495149
C     0.2101492414     -2.0344282745     -2.5314148832
C     -0.7895337197     -1.0573267326     -2.4754972029
C     2.2192717327     -2.6554360487     -1.6280342254
C     2.9644465477     -2.2920842901     -0.4826149478
C     1.6057243634     -1.6390805902     -2.4013425043
C     3.5020450529     -1.005827177     -0.4360944323
C     2.6462028575     -0.7441269614     1.8386638184
C     3.5778014259     -0.3762724896     0.8229435938
C     0.6748338514     0.5415288116     2.654790674
C     2.0472799888     0.4689812042     2.3462973906
C     -1.3950484557     1.8904313313     2.2583818473
C     -0.0032494892     1.8614737708     2.5054044445
C     -2.9169331404     2.074732961     0.5132122764
C     -2.0210542608     2.8551646524     1.3689124679
C     -2.5846985647     1.0109827845     -1.668039165
C     -2.8493681513     2.2161326569     -0.8798712839
C     -0.3790025838     0.3440575598     -2.6483004825
C     -1.4142951031     1.3080454714     -2.5161479459
C     1.9988846156     -0.2604345416     -2.2495114178
C     3.0975110587     0.0137404545     -1.3977629053
C     0.9949520643     0.7786816983     -2.4853209541
C     3.517386044     1.0428715793     0.6336623442
C     2.7104600934     1.5938720798     1.6549491597
C     3.1850931503     1.3015425371     -0.7284183349
C     0.7328647913     2.9978083098     1.9717975852
C     2.0519530738     2.7641109619     1.3849110701
C     -1.270592586     3.9024674406     0.8236778728
C     0.101661755     3.9854420955     1.205255539
C     -2.036475644     3.2690377338     -1.4176769324
C     -1.1078150782     2.6601178415     -2.3917780473
C     -1.3237855861     4.1315337526     -0.6172065301
C     1.2718320812     2.1620408028     -2.0669796906
C     2.3276775285     2.3815287529     -1.0539895447
C     2.0364061836     3.2849929946     0.0314321858
C     0.9102329959     4.1488086625     -0.0334783878
C     0.2153226805     3.1181301064     -2.1380211072
C     0.0727813989     4.153512492     -1.1196745402


