60

 C     -1.4357190034     -4.553209933     -0.6049184342
C     -0.0856406632     -4.6331845562     -1.1269639834
C     0.7862354132     -4.7306729056     -0.043967317
C     -1.360074669     -4.4020766202     0.8649557235
C     -0.0211065493     -4.6377509742     1.22272919
C     -1.9523822931     -3.1464508942     1.1982551419
C     -2.0434698885     -3.43213384     -1.1406500043
C     -2.5043598313     -2.5830173912     -0.047782574
C     0.0790846889     -3.5517362859     -2.1005383028
C     -1.183592834     -2.8258038015     -2.158919012
C     1.2458827895     -2.7875449418     -2.0770360131
C     1.9194019547     -3.8456797297     0.0965581646
C     2.1936576464     -2.9128383211     -0.9426092861
C     0.6483015592     -3.7468327636     2.0689373431
C     1.9187321149     -3.3426475736     1.4344168568
C     -1.293175865     -2.2205388967     2.0799761733
C     0.0246145053     -2.5661045862     2.5482303498
C     -1.6185862476     -0.8098938379     1.9666712861
C     -2.6078369062     -1.2237392371     -0.2450219905
C     -2.4405356222     -0.326206175     0.8973958854
C     -1.2312936582     -1.4422720188     -2.3435780968
C     -2.2141412082     -0.6721340534     -1.5592346302
C     1.2022798171     -1.4078812009     -2.4584960583
C     -0.0120279796     -0.7244127059     -2.6969603847
C     2.6504096211     -1.6004412283     -0.6368599075
C     2.2161700729     -0.6923593247     -1.7004796297
C     2.1473381209     -1.9863873211     1.7101952083
C     1.0438998345     -1.5096979446     2.5299967041
C     2.6216649852     -1.0901433052     0.6998930329
C     -0.7155602081     0.1746476197     2.5658044648
C     0.7155602081     -0.1746476197     2.5658044648
C     -1.0438998345     1.5096979446     2.5299967041
C     -2.6216649852     1.0901433052     0.6998930329
C     -2.1473381209     1.9863873211     1.7101952083
C     -2.2161700729     0.6923593247     -1.7004796297
C     -2.6504096211     1.6004412283     -0.6368599075
C     0.0120279796     0.7244127059     -2.6969603847
C     -1.2022798171     1.4078812009     -2.4584960583
C     2.2141412082     0.6721340534     -1.5592346302
C     1.2312936582     1.4422720188     -2.3435780968
C     2.4405356222     0.326206175     0.8973958854
C     1.6185862476     0.8098938379     1.9666712861
C     2.6078369062     1.2237392371     -0.2450219905
C     -0.0246145053     2.5661045862     2.5482303498
C     1.293175865     2.2205388967     2.0799761733
C     -1.9187321149     3.3426475736     1.4344168568
C     -0.6483015592     3.7468327636     2.0689373431
C     -2.1936576464     2.9128383211     -0.9426092861
C     -1.2458827895     2.7875449418     -2.0770360131
C     -1.9194019547     3.8456797297     0.0965581646
C     1.183592834     2.8258038015     -2.158919012
C     -0.0790846889     3.5517362859     -2.1005383028
C     2.5043598313     2.5830173912     -0.047782574
C     1.9523822931     3.1464508942     1.1982551419
C     2.0434698885     3.43213384     -1.1406500043
C     0.0211065493     4.6377509742     1.22272919
C     -0.7862354132     4.7306729056     -0.043967317
C     0.0856406632     4.6331845562     -1.1269639834
C     1.360074669     4.4020766202     0.8649557235
C     1.4357190034     4.553209933     -0.6049184342


