60

 C     -0.6731374443     4.3938841642     0.1542405224
C     -0.7200516478     3.9751970239     -1.2031538602
C     -1.8081297766     3.0438019421     -1.3557630517
C     -1.6646394981     3.714822436     0.9012134299
C     -2.4653892854     2.973383684     -0.0550742741
C     -0.9802637823     2.9585877235     1.8996272206
C     0.6420633222     4.115253046     0.681251232
C     0.4813839919     3.2337680288     1.7837074804
C     0.6169001165     3.6178892313     -1.6014428099
C     1.4884409213     3.743090024     -0.4126172843
C     0.7700920495     2.5042114443     -2.4121993165
C     -1.642261263     1.8439195656     -2.1314494436
C     -0.3668505417     1.6551758775     -2.7359418267
C     -2.4081387824     0.6278080956     -1.7851015846
C     -2.9848356788     1.768451824     0.3442855242
C     -3.1470473092     0.6702381713     -0.5720905609
C     -1.4430403789     1.6723767083     2.302638749
C     -2.6259597892     1.1920439176     1.6444000551
C     -0.4965351386     0.6877307778     2.8282408697
C     1.4064389127     2.1855010509     2.0148864358
C     0.9521490618     0.9481297609     2.6967095832
C     2.4527399617     2.7715374846     -0.1792487014
C     2.5114827934     2.099971263     1.0954526386
C     1.9193484336     1.6201312876     -2.2703589314
C     2.7681730529     1.7591626614     -1.1856302539
C     0.1331728231     0.3295328652     -2.9965387424
C     1.538319853     0.2928715089     -2.7000172452
C     -1.99710411     -0.6889177633     -2.2739135927
C     -0.6810977869     -0.8313259732     -2.8918732309
C     -2.5381266471     -1.8572793395     -1.6222109921
C     -3.3467887944     -0.5141811339     0.2326653045
C     -2.9360106586     -0.1882079852     1.5988485395
C     -3.1116136623     -1.7540247412     -0.2866971434
C     -0.9396641678     -0.6585119845     2.9343688812
C     -2.1634877071     -1.1092206279     2.3044257745
C     -0.0271982431     -1.7738339332     2.8849491972
C     1.8238813798     -0.1530613286     2.713493874
C     1.3420185263     -1.5248385     2.8378619936
C     3.1764367286     0.844007642     0.8922793821
C     3.2780875072     0.5709802517     -0.5199657548
C     2.9736136803     -0.195565197     1.7968712555
C     2.1435878801     -0.8802868134     -2.1697798458
C     3.0490770273     -0.7402830396     -1.0222408034
C     0.0419651888     -2.0688480001     -2.7870834683
C     1.4007525665     -2.0789155629     -2.3313152075
C     -1.8609902145     -3.098140566     -1.661945436
C     -0.608424763     -3.2360116647     -2.2470978623
C     -2.5170829242     -2.8120568598     0.5541713148
C     -1.9650183895     -2.4490345942     1.7993394409
C     -0.6120865953     -2.8600606188     2.1205265841
C     -1.7989271456     -3.6706168821     -0.2967546197
C     1.5026576277     -3.1851928379     -1.3572777391
C     0.2622138392     -3.8729952475     -1.2972249355
C     0.179778208     -3.6201825174     1.1875216849
C     -0.4506837675     -4.0381434451     -0.0402426959
C     2.1352458418     -2.3668419947     2.0110470848
C     3.1013225756     -1.5063101067     1.3167167494
C     3.0820440484     -1.8141076196     -0.0582275189
C     1.5880823402     -3.2887375439     1.119012747
C     2.2191157338     -2.9777248402     -0.1902751156


