60

 C     -0.8198176483     4.3318684537     -1.1833805904
C     -1.9642515488     3.7163698037     -0.6032185402
C     -1.8412477991     3.7087779716     0.8174585759
C     0.1631669937     4.3977893957     -0.1145977564
C     -0.4496800913     4.0839603296     1.1173486842
C     1.3189053459     3.6387587841     -0.479590506
C     -0.3023617305     3.3817357713     -2.1144836859
C     1.0239161136     3.0213898232     -1.782206971
C     -2.2845562063     2.4682314814     -1.3010089894
C     -1.2242596901     2.2802805812     -2.2783176811
C     -2.7977983     1.3526736246     -0.6122497372
C     -2.1229417892     2.5245949337     1.5001559921
C     -2.822464345     1.4277218165     0.8527835511
C     0.0940992757     3.0851557727     1.9757207036
C     -0.9842564675     2.1995124685     2.3598092376
C     2.0142041348     2.8605161611     0.4783634948
C     1.3751006929     2.5013226176     1.7488116988
C     2.9177151934     1.9077233384     -0.0881361032
C     1.5201880411     1.7146054761     -2.1171303548
C     2.6474995735     1.2969251305     -1.4009839022
C     -0.7856866697     0.9844600647     -2.606556335
C     0.6411079311     0.6900546343     -2.654587602
C     -2.6684547321     0.0383124791     -1.2468949763
C     -1.7228656208     -0.0899025966     -2.3389201774
C     -2.9955812565     -1.1649766694     -0.5050648769
C     -2.8206976686     0.2397852546     1.5713295236
C     -3.076896131     -1.0612104999     0.9300192658
C     -0.7725026505     0.8907389197     2.81568781
C     -1.8870373625     0.0117090556     2.6441325756
C     1.6654016134     1.1843973971     2.3452819733
C     0.5805563827     0.3386442152     2.8475480645
C     3.5147130831     0.9536979781     0.7130086718
C     2.8808989232     0.5382213784     1.9407014259
C     3.0764945442     -0.0830848459     -1.3582747726
C     3.7605165999     -0.248886109     -0.0921984668
C     1.0735660296     -0.6913847522     -2.6440876236
C     2.2775754612     -1.1051847626     -1.8952738537
C     -1.327691206     -1.3719641883     -2.7709440498
C     0.0953465451     -1.672433809     -2.9223857001
C     -2.6096616315     -2.4519959113     -1.0204699924
C     -1.9594176873     -2.5476409824     -2.2742150558
C     -1.9966663751     -3.4866011009     -0.1293699394
C     -2.5736263811     -2.0691537737     1.766683907
C     -1.7196220907     -1.3861486468     2.7086811355
C     -1.8179586527     -3.1597913647     1.2191777936
C     0.7197657144     -1.1224629884     2.8041245195
C     -0.4350592608     -1.9643595543     2.6854272471
C     -0.4956281223     -3.1386229995     1.802045486
C     3.0123996106     -0.8834714283     1.9868688499
C     3.5339715237     -1.345317121     0.6882080544
C     1.9204678139     -1.6923212357     2.2757844975
C     2.2345354524     -2.4092560841     -1.1549519011
C     0.633452355     -3.4810068308     0.9954486844
C     2.7250799067     -2.4179610969     0.2058488984
C     1.8347998563     -2.7774136635     1.2590667509
C     0.2746967     -3.0415347525     -2.5195696335
C     -0.9691867656     -3.6034309429     -2.2152449709
C     -0.9134206989     -4.0557765983     -0.8545186382
C     1.1998321916     -3.3121916563     -1.4234363398
C     0.4313225771     -3.9344478469     -0.3532573499


