60

 C     -1.4750963242     -3.861306523     1.4114225467
C     -0.0402342476     -3.8625658036     1.5060740112
C     0.3770357535     -2.7549297408     2.2752846919
C     -1.9603536233     -2.6915488736     2.0771571576
C     -0.8534643945     -1.9866717324     2.6124968015
C     -2.7980338449     -1.9471566863     1.176240856
C     -1.7602886114     -3.666620128     0.0420411299
C     -2.6489192588     -2.5547588211     -0.1347608661
C     0.5302344487     -4.0403016927     0.187157702
C     -0.5491156684     -3.7779787531     -0.7575963494
C     1.7920211519     -3.5105392716     -0.0482596646
C     1.5957307779     -2.0695905812     1.9710724923
C     2.3954237481     -2.5821636086     0.9088857224
C     1.6941440588     -0.6481139967     2.3344931915
C     -0.8370420073     -0.5658376135     2.6669820548
C     0.4798032046     0.0796904668     2.7634102259
C     -2.9235168462     -0.5525494799     1.3102958192
C     -1.9916035558     0.1809193871     2.1659481425
C     -3.4389336723     0.1017744268     0.1514167394
C     -2.5597943966     -1.7284447925     -1.2869642954
C     -3.1824369006     -0.4642912558     -1.1699699639
C     -0.3481776629     -2.9056982187     -1.867120397
C     -1.3888034578     -1.8803707408     -2.1832693767
C     2.0654608117     -3.0025366531     -1.3507222336
C     1.0162855858     -2.6263469828     -2.2206712937
C     3.2233983387     -1.6658996211     0.1403533008
C     3.0056715173     -1.9083440796     -1.248748354
C     2.7377854672     0.1152523577     1.7577013485
C     3.3835150275     -0.3580720274     0.5464669855
C     2.6852262293     1.5478923507     1.6805645343
C     0.5132373778     1.4821202915     2.7892647884
C     1.6610737254     2.2242311614     2.3393000715
C     -1.8925473748     1.6225424471     2.0058962929
C     -0.6869268404     2.2791190775     2.4604830701
C     -3.3925183079     1.5039844026     0.0586806239
C     -2.6285843002     2.2893006986     0.9769107601
C     -2.8133803331     0.6594770169     -2.0021102583
C     -3.0262392299     1.8744267169     -1.2693522729
C     -0.97885549     -0.728343238     -2.8735584813
C     -1.6600922778     0.5496943052     -2.7644468872
C     1.4045032459     -1.3161071854     -2.7545698789
C     2.628502423     -0.8561197808     -2.1082834493
C     0.4283206475     -0.4149936439     -3.0790934363
C     3.3372098975     0.736600431     -0.408358787
C     3.0496071381     1.9374482589     0.322284028
C     2.7706585719     0.511798951     -1.704133144
C     2.371790468     3.0032923687     -0.2946768926
C     1.178698608     3.4618203748     1.7837160501
C     -0.2878151505     3.5079641874     1.9214431865
C     1.5354724327     3.84893716     0.5082712106
C     -1.9880023093     3.3399554342     0.1895372956
C     -2.0655913008     2.9200279433     -1.2062323926
C     -0.8350631722     3.9496969196     0.6653819331
C     0.284548401     4.116003791     -0.2290665952
C     -0.6711930437     1.6204198655     -2.7479242541
C     0.6208096509     1.0067129101     -2.8678546659
C     1.7912061606     1.4954100458     -2.193287372
C     1.6445299754     2.7314420323     -1.513293714
C     -0.8574368726     2.8102713648     -1.9800096376
C     0.3381556309     3.4199744807     -1.4423001508


