60

 C     2.4923728922     -3.1270201746     0.2015500348
C     1.523736679     -3.677779292     -0.6102297024
C     0.3636613372     -4.0559181883     0.2152240317
C     1.9109764822     -3.0060414873     1.5359786349
C     0.5589750704     -3.4759177051     1.516413459
C     2.22304892     -1.7383119145     2.0279307732
C     3.087143442     -1.8781172771     -0.1458389258
C     3.0745399279     -1.0628771251     1.0412974748
C     2.8068859806     -1.2648063075     -1.4114366155
C     1.0731903126     -3.0110549418     -1.7989345184
C     1.6938227744     -1.788957686     -2.2262887654
C     -0.7901541623     -3.7737596387     -0.5230248798
C     -0.3643263729     -3.1550410006     -1.8090628573
C     -1.9160550206     -3.2804399599     0.1390919999
C     -0.4818396525     -2.685233863     2.1259826063
C     -1.771286743     -2.7943777816     1.5063272678
C     1.2544910627     -0.9809916132     2.7676678291
C     -0.133160094     -1.4149338641     2.7951055996
C     1.5678596796     0.414262149     2.8941641597
C     3.1109917407     0.3553865798     0.9624756126
C     2.430403248     1.0764519289     1.9820734908
C     3.089740225     0.1337529711     -1.479996846
C     3.2460143844     0.9470827593     -0.321507407
C     2.4484404786     0.9567419502     -2.4643254679
C     0.8396222703     -0.8213474691     -2.9337342296
C     1.266704435     0.5551458196     -3.0588431606
C     -1.1599610711     -2.1787906731     -2.3826839018
C     -0.5567649733     -1.0230115019     -2.978465707
C     -2.7979472879     -2.3357116121     -0.5365470184
C     -2.400339864     -1.7606613484     -1.7505195928
C     -2.7438246238     -1.7673491804     1.686400201
C     -3.3774338468     -1.4816540475     0.4455189487
C     -1.1676060441     -0.3599374795     2.9100365629
C     -2.4280813729     -0.5389191047     2.3104303227
C     0.5470936007     1.3567816821     3.227860672
C     -0.7830173494     1.025392375     3.0925267614
C     1.882403483     2.4529744909     1.7241036744
C     0.7974273361     2.6318355817     2.5628829336
C     2.6613394329     2.2891786716     -0.6093204185
C     2.2750993696     2.3058111339     -1.9407730963
C     1.8889736739     3.0094457122     0.3880881118
C     0.3195673234     1.7000638408     -3.007418051
C     0.9845598304     2.7928706893     -2.333375273
C     -1.4891745751     0.0921535321     -2.8080816153
C     -2.5792255826     -0.3452558383     -2.0069366056
C     -1.0621650931     1.4621820346     -2.8063267886
C     -3.4803368559     -0.0638087256     0.2782165264
C     -3.0141521122     0.540043688     1.4790372636
C     -3.1616670869     0.5395887059     -1.0027377781
C     -1.4560866835     2.1543060342     2.3880731424
C     -0.4522962464     3.1433521495     2.0740044342
C     -2.5102563442     1.8725043922     1.480654091
C     0.7344346501     3.7209592519     -0.0394322333
C     0.2720407333     3.5969466497     -1.4318166005
C     -0.4648216909     3.7853765346     0.8239670762
C     -1.8103928825     2.3859549236     -1.9928968063
C     -2.7744095142     1.882060584     -1.013152307
C     -2.5677903536     2.6106461866     0.2429006782
C     -1.1387517514     3.4654749126     -1.3900898461
C     -1.5922355249     3.5932987865     -0.0121870593


