60

 C     -0.7065547393     3.5561697631     1.5297585043
C     -1.9258208466     3.318935944     0.9417088303
C     -1.7777406887     3.4842811739     -0.5184451761
C     0.27253178     3.8266598203     0.441780073
C     -0.3999402785     3.6601630714     -0.8255304625
C     1.4745839381     3.2315823323     0.7495979466
C     -0.1287329531     2.6192099722     2.4118453456
C     1.3090340684     2.6101804959     2.0899401034
C     -0.8029111457     1.4134866339     2.7517752973
C     -2.6416117022     2.1176615899     1.2097837898
C     -2.1141637282     1.1520287303     2.1262001154
C     -2.5524022259     2.4825867474     -1.1306027745
C     -3.1885060858     1.6821210144     -0.074019203
C     -2.0175192737     1.8285513777     -2.2478262075
C     0.2317434266     2.8610281382     -1.8394467578
C     -0.6474514951     2.0666647085     -2.6428253451
C     2.2568745408     2.5579674296     -0.2787464371
C     1.6212451617     2.3786617291     -1.6101282366
C     3.1966395419     1.6134702902     0.192190819
C     2.1028797522     1.5715851974     2.452882221
C     3.1899101564     1.1970742514     1.586065744
C     0.0552021191     0.2705376469     3.1354871837
C     1.480401476     0.3603430808     2.9925651767
C     -0.4672586397     -1.0293718345     3.1143834527
C     -2.5616774808     -0.2386183772     1.955729262
C     -1.8338053342     -1.2903297025     2.615785438
C     -3.4367687143     0.3496275421     -0.2985240118
C     -3.2565344529     -0.6104748307     0.7648614629
C     -2.3146002077     0.4262907281     -2.4846925178
C     -3.0508440516     -0.2904543925     -1.548970115
C     -0.1842433004     0.8643277218     -3.2913515562
C     -1.1758883887     -0.1878732822     -3.1252141799
C     2.0825585677     1.3099997516     -2.405335239
C     1.1648670896     0.5589918054     -3.2770575332
C     3.5192122145     0.4376738662     -0.5851251865
C     3.0487480368     0.3442051945     -1.8895195713
C     3.2648702683     -0.1971859138     1.6143934828
C     2.2353016486     -0.7388139524     2.475448021
C     3.462214772     -0.7223766437     0.2889979913
C     0.3461110327     -2.1714454938     2.7683912199
C     1.6358396235     -1.9909267493     2.1777071324
C     -1.8961167865     -2.6114118061     2.1646247604
C     -0.5401316499     -3.1628614026     2.2544765346
C     -3.042863564     -1.9053107251     0.1441367948
C     -2.7220521817     -1.6675245204     -1.2569033462
C     -2.4094056557     -2.9186993528     0.8540908643
C     -0.8014150562     -1.5296447861     -2.8345620564
C     -1.6064169656     -2.2984218357     -1.876584554
C     1.5258422475     -0.815350987     -3.2367670315
C     2.6888719203     -0.9447353216     -2.3592903967
C     0.6088391383     -1.8287301107     -2.9469609219
C     2.8074437865     -1.9194440189     -0.0971725566
C     1.9418441722     -2.6355349143     0.8809090839
C     2.5054668577     -2.0429198882     -1.501951565
C     1.2681142549     -2.6862639361     -1.9477737049
C     -0.2335768222     -3.8055076814     1.0743741003
C     -1.4023564706     -3.6824864281     0.1712929372
C     -0.9471738698     -3.3339485172     -1.0957044521
C     0.9593059368     -3.5070637282     0.3494747821
C     0.5299871265     -3.3883363155     -1.0536275746


