60

 C     2.8303556011     1.5038896293     -1.8779160464
C     1.6494467753     1.6895348053     -2.5867173553
C     1.2344341153     0.3649782657     -3.1021274393
C     3.1789049486     0.0779969549     -1.8982222689
C     2.2340122154     -0.6139064329     -2.7024583883
C     3.4738586974     -0.3297088925     -0.6026232415
C     2.9986114803     2.004020445     -0.5522527325
C     3.3242543046     0.8656779439     0.2794313048
C     2.1424398066     3.0049760023     -0.1035585129
C     0.695022579     2.6683082901     -2.1174823136
C     1.0455414254     3.4402342716     -0.9610962724
C     -0.6816003904     2.3645529376     -2.34421108
C     -0.1234373189     0.0133955345     -3.1585452624
C     -1.072876338     1.0711488138     -2.8528964246
C     -0.5154269677     -1.3951280565     -2.9224489602
C     1.8533932992     -1.9014984183     -2.3246336129
C     0.4884132555     -2.3278770544     -2.5077045918
C     3.0883521674     -1.6448470652     -0.1712761386
C     2.3536262202     -2.4660067284     -1.0891611873
C     2.825376391     -1.7932923436     1.2277347807
C     2.7615456313     0.7412897585     1.5685192305
C     2.6040845423     -0.5977545176     2.0673660008
C     1.6562665582     2.9760327329     1.2581744639
C     1.8666289973     1.8163095798     2.0766761516
C     0.0080129691     3.9062747612     -0.093220283
C     0.3903890211     3.6413882526     1.264301703
C     -1.7143909499     2.8252811661     -1.429789578
C     -1.352919933     3.5369118492     -0.2738925889
C     -2.3670547545     0.7597719128     -2.3175616179
C     -2.7273009699     1.8038638996     -1.359311472
C     -1.8561952312     -1.6590213202     -2.4831660418
C     -2.7433550022     -0.5576957278     -2.1043861543
C     -2.1130828679     -2.7187598026     -1.5854717818
C     0.2138579779     -3.3388545028     -1.4993613419
C     1.3430881968     -3.3986101913     -0.6066429741
C     -1.0882040158     -3.475400467     -0.9952512223
C     1.9540891509     -2.8025841503     1.671894369
C     1.1280922735     -3.5267253662     0.7734523064
C     1.5604169779     -0.9048160221     2.9886609799
C     1.1154361294     -2.2365987753     2.7246160936
C     0.7857508675     1.4395526466     2.9360756073
C     0.5880761226     0.0619394489     3.2892372381
C     -0.7340442602     3.1198255107     1.9607306215
C     -1.8652535601     3.0939633994     1.0277917484
C     -0.5309018598     2.0475807797     2.8251467232
C     -3.2753091149     1.4378232872     -0.1284125387
C     -2.7726356901     2.0488422805     1.0889466718
C     -3.4390921924     -0.9143990799     -0.8763681816
C     -3.0044701854     -2.2157958889     -0.5312157547
C     -3.5432681265     0.0371511938     0.1476496409
C     -1.3133877764     -3.4273399585     0.4593894613
C     -0.2424049651     -3.4405924862     1.3072794215
C     -0.2221482566     -2.527084426     2.4669289436
C     -2.458813515     -2.5297613511     0.718994955
C     -0.8148505579     -0.2668738426     3.1964906246
C     -1.5062797094     0.9751171593     2.9070478372
C     -2.6066058922     0.9722761263     2.0637991699
C     -3.0585388207     -0.2725441384     1.468410025
C     -1.2457207385     -1.5068292111     2.6437628647
C     -2.4022085372     -1.5196033214     1.7508746217


