60

 C     1.3092831633     4.4820867184     0.3763134625
C     1.8846137481     3.8092159175     -0.771637387
C     0.9165238153     3.6718490783     -1.7623148998
C     -0.1345004282     4.4769344265     0.1606375498
C     -0.3768318738     4.1166242338     -1.174755764
C     -0.8013732791     3.7248550178     1.2104423435
C     1.520228873     3.6052677145     1.4507751147
C     0.2639688676     3.2730346593     2.0924513213
C     2.5593788764     2.5901296612     -0.3371026998
C     2.3975527952     2.4948909704     1.0835442797
C     2.505054808     1.3973496112     -1.1036009679
C     0.6941490155     2.4304173261     -2.4125324694
C     1.5696409531     1.3034685289     -2.2125395949
C     -1.3446234276     3.1538396846     -1.4915133051
C     -0.714675322     2.1705043015     -2.3892090952
C     -1.8820408902     2.8358979117     0.916367297
C     -2.2298764306     2.6440596372     -0.492782179
C     -2.1039299438     1.6800034115     1.8212196921
C     0.1750070705     2.0547764208     2.7373530379
C     -1.0618112833     1.3141440914     2.716936802
C     2.278769697     1.2282973395     1.7327121537
C     1.2523020636     1.0924083028     2.7052133525
C     2.868660566     0.1691260453     -0.4130756684
C     2.7081128803     0.0364547271     1.0165148505
C     2.8385548484     -1.0026814163     -1.2075453585
C     1.0921876638     0.0026468959     -2.6402397613
C     1.898480074     -1.1086044426     -2.3200943962
C     -1.2492020252     0.8711591316     -2.5992815463
C     -0.3314468289     -0.2294195538     -2.880549949
C     -2.9396658681     1.4670791513     -0.8762481107
C     -2.5024911458     0.6167544978     -1.9990759668
C     -2.9626228191     0.6070789508     1.4037635511
C     -3.5058722645     0.6189558112     0.0727560518
C     -2.7154565969     -0.7655465178     1.7292910977
C     -0.7569272275     -0.0689140861     2.9869431666
C     0.6743190937     -0.2008623052     2.9401541907
C     -1.5835219     -1.1202534284     2.5054224043
C     2.4215855148     -1.2892433079     1.5762939781
C     1.3006557974     -1.394126629     2.5128734137
C     2.9678581676     -2.2599974205     -0.6079019481
C     2.7311792463     -2.4353550187     0.7740309081
C     1.4116865622     -2.4691605126     -2.3545514315
C     2.1488172815     -3.2243449673     -1.3710590605
C     -0.8296201243     -1.5519924751     -2.7348986398
C     0.0323375041     -2.6827239212     -2.4538665883
C     -2.921454879     -0.7323832431     -1.7255725453
C     -3.5568595838     -0.7344485502     -0.43457554
C     -3.0626764843     -1.5881893036     0.5503564692
C     -2.0912267252     -1.7889406138     -2.0797920887
C     -0.6500596827     -3.5746123889     -1.5185918618
C     -2.2981928358     -2.7656890004     0.1926358346
C     -1.8980190364     -2.9180485241     -1.1679748785
C     -0.9619658927     -2.3858903195     2.289793568
C     0.4362798902     -2.5536398963     2.4479717085
C     -1.4112019795     -3.2941424852     1.1971885961
C     1.9339055     -3.6580231382     0.868811681
C     1.5330072209     -4.0902749274     -0.5016030084
C     0.0884450511     -4.2452141971     -0.5236943743
C     0.8149858615     -3.688167824     1.6467555655
C     -0.3493857918     -4.1184196613     0.8426573422


