60

 C     -1.0609231044     -4.0586807216     1.3842059512
C     -0.16650892     -4.2907325848     0.2711002204
C     1.0928618898     -3.7416984375     0.5905950682
C     -0.4033326728     -3.2008748853     2.3253344906
C     0.9126162989     -3.0171150563     1.8826168739
C     -1.2104942884     -1.9826581836     2.4802773381
C     -2.1701108463     -3.3577781702     0.887182127
C     -2.3549732226     -2.1262891204     1.6232327644
C     -0.8162441751     -3.879853238     -0.9575105718
C     -2.118093188     -3.3192467211     -0.5639820095
C     -0.0683580696     -3.2055963605     -1.9268850958
C     1.9061153237     -3.1475915873     -0.4132621928
C     1.3321389543     -2.9270074158     -1.7156922195
C     2.8914811093     -2.2106988268     0.0453371405
C     1.5977142648     -1.7838473049     2.1485430202
C     2.7427004015     -1.5357385768     1.3739139905
C     -0.6220150075     -0.7117844041     2.7042785367
C     0.8374099482     -0.6439600689     2.7089082725
C     -1.4059944276     0.4822731338     2.3860580402
C     -2.9014084218     -0.987629258     0.9898267571
C     -2.578226983     0.3224255963     1.5360024939
C     -2.6096322223     -2.1864328147     -1.1865426003
C     -3.1632207437     -1.0924963775     -0.4182128043
C     -0.6340443216     -2.0535319908     -2.6368691298
C     -1.8927169783     -1.5761547068     -2.3117570785
C     1.639643787     -1.6967244195     -2.4192493251
C     0.4115939943     -1.1010712058     -2.9033648356
C     3.4120028002     -1.2578789357     -0.8173180058
C     2.7027850551     -0.8903207603     -2.0127470288
C     3.291638155     -0.2112996665     1.2702331133
C     3.70225523     -0.0314130479     -0.0849908737
C     1.435800971     0.6261317928     2.6393038493
C     2.6547171966     0.8496787019     1.9198258571
C     -0.7698451108     1.8005444143     2.4729298186
C     0.6462316247     1.8469634498     2.5718067406
C     -1.4072529361     2.959189035     1.869751138
C     -3.0327273081     1.4495437001     0.7820463595
C     -2.5643415205     2.7395292262     1.0269449198
C     -3.0758831191     0.0860666402     -1.234276645
C     -2.1497331894     -0.1667177123     -2.3228803959
C     -3.1634590037     1.3261231274     -0.6703462533
C     0.1968129521     0.3068644007     -2.8574901643
C     -1.1555894822     0.8092989182     -2.6195250333
C     2.5430482074     0.5377403748     -2.0007731137
C     3.2480358379     1.0675824487     -0.8159626186
C     1.3362972075     1.1462603864     -2.4560884017
C     2.536549521     2.1427399855     1.2689745601
C     1.4212850878     2.8465349844     1.861883768
C     2.7585408703     2.2269225784     -0.1403518911
C     -0.6433127402     3.9865288282     1.2719266219
C     0.766184447     3.8571499474     1.1401055469
C     -2.3773983945     3.4339712185     -0.2292425659
C     -2.4945143081     2.4593683679     -1.2765164226
C     -1.3810951004     2.1904761737     -2.1501644718
C     -1.2256613476     4.2167468492     -0.0886350525
C     1.0811580195     2.4670071732     -2.0047216529
C     1.8806328957     3.0691179432     -0.9038282499
C     1.0672572386     3.9917413775     -0.2723720828
C     -0.2256979701     3.0555492378     -2.0087657093
C     -0.2027004651     4.0927525477     -1.0128210833


