60

 C     0.2733563259     4.7237838421     -0.3277754812
C     -0.0235842487     4.0887461175     -1.6321322677
C     -1.3447890726     3.6519536642     -1.6110447155
C     -0.811826836     4.4005514312     0.5603569666
C     -1.8360220313     3.8379397708     -0.2111579322
C     -0.2934732713     3.6002963033     1.6719023746
C     1.401023787     4.0763381153     0.1629225185
C     1.1329089142     3.4605307644     1.4620731449
C     1.0081208242     3.1572572651     -1.9784939122
C     1.9875629527     3.2422753369     -0.8770474981
C     0.6907228232     1.8706458124     -2.5026053348
C     -1.6829173495     2.3410952965     -2.00961538
C     -0.7137447059     1.4536113812     -2.5675048495
C     -2.5098865586     2.6637198314     0.1754643325
C     -2.5737221768     1.7987048666     -0.9837820767
C     -1.0436074719     2.5039617764     2.1909992761
C     -2.2491046906     2.0579550721     1.4609037039
C     -0.2907720254     1.4743612402     2.8399009616
C     1.819774316     2.2733432864     1.8252017208
C     1.1221799535     1.3544980052     2.6596427716
C     2.7057616181     2.139903772     -0.5022730275
C     2.7675817245     1.6952727689     0.8830824577
C     1.6977001661     0.8070235483     -2.3390312756
C     2.7091548971     0.9647169174     -1.3457101547
C     1.3535792297     -0.5191163549     -2.6741607226
C     -1.0522108535     0.0326311979     -2.6120686338
C     -0.02916864     -0.893702977     -2.9198609922
C     -2.8151533634     0.4263203098     -0.8751875658
C     -2.2079255423     -0.4753930278     -1.8617444591
C     -2.6615418734     0.7205728621     1.5855257895
C     -3.080963319     -0.0501750514     0.4423627331
C     -0.8062991452     0.1317777455     3.040586557
C     -2.0044349388     -0.2309550384     2.4661713184
C     1.4671344142     -0.0553143902     2.709528949
C     0.2914042308     -0.8189197604     3.0179180994
C     3.0132111542     0.3086960088     0.8524909882
C     3.0952067624     -0.1414197986     -0.5438844672
C     2.4506638612     -0.5884388289     1.8306829198
C     2.0092617534     -1.660715464     -2.0991160988
C     2.8041294521     -1.4706858085     -0.9246957021
C     -0.1589255389     -2.3032438568     -2.6824478347
C     1.1279128429     -2.8144810059     -2.2205733426
C     -2.3253837389     -1.8582212642     -1.6361989029
C     -1.3578403828     -2.806572132     -2.1420842638
C     -2.9378936261     -1.4443261267     0.7354172093
C     -2.190173292     -1.58515332     1.9618244237
C     -2.758672657     -2.3480926708     -0.3128592363
C     0.1299258866     -2.1623960054     2.5898143602
C     -1.2066492644     -2.5999244604     2.0985807
C     2.3477655172     -1.9579733009     1.501635036
C     2.6792333099     -2.449902564     0.1316143256
C     1.2940430861     -2.7714244356     2.0076869305
C     1.1805410431     -3.8426198187     -1.268765485
C     2.0052892355     -3.6371848425     -0.0875003148
C     1.1560900206     -3.881877343     1.0909385624
C     -1.2707292287     -3.9034442173     -1.2160713173
C     -2.0735178739     -3.5408961077     -0.0248323161
C     -1.2823210676     -3.687851161     1.1425787433
C     -0.0616105247     -4.4148234133     -0.7992553197
C     -0.0663746927     -4.3432395641     0.6916731065


