60

 C     -1.6652474881     4.1404986303     1.3511703915
C     -0.5046568886     4.5780730139     0.604178333
C     -0.7389270197     4.4324509698     -0.7911501179
C     -2.5294705704     3.507468919     0.4117675665
C     -1.9777096031     3.6879297856     -0.9025251384
C     -2.7726955161     2.161002581     0.8261991746
C     -1.2044516371     3.0932962106     2.2132255435
C     -1.9704888576     1.8992566551     2.0209114057
C     0.6832123701     3.9740257217     1.1693234616
C     0.2208079311     2.97617719     2.1703264372
C     1.7384310953     3.6593912     0.3335911512
C     0.2410539235     3.8103873847     -1.6267908807
C     1.5565210522     3.6678456552     -1.1289905799
C     -1.7443971624     2.5815715449     -1.7636193643
C     -0.3690646318     2.6590758944     -2.2715399164
C     -2.8347154494     1.1190215014     -0.1118564526
C     -2.264244198     1.311223454     -1.4540985938
C     -2.8131164467     -0.2032872184     0.4271911029
C     -1.4032105063     0.6287032412     2.2563915292
C     -2.0705273121     -0.5049430597     1.6554092885
C     0.8491626157     1.7119382644     2.3096396459
C     0.0200614337     0.5170407397     2.5333277769
C     2.5772836427     2.514151638     0.6606658564
C     2.1618439199     1.5549649775     1.6764040735
C     2.3457051845     2.613544823     -1.6262988362
C     3.1285170573     2.0342282099     -0.5437935104
C     0.3729445909     1.4716856667     -2.5686810544
C     1.7880693004     1.5140805776     -2.3325715446
C     -1.6767835142     0.1463664393     -2.1001084092
C     -0.2865664696     0.1697074022     -2.5456327001
C     -2.9646034882     -1.2270003865     -0.521399414
C     -2.2622482946     -1.0788269586     -1.8021887179
C     -2.8583044376     -2.5486045107     -0.128590713
C     -1.6119425989     -1.848330059     1.8955680012
C     -2.2281014373     -2.9123840891     1.1247613374
C     0.5997434799     -0.8059400869     2.4970164869
C     -0.2340993942     -2.0237590115     2.3611647024
C     2.6699568836     0.2577100253     1.5601056027
C     1.9664123897     -0.8860032409     2.0976550401
C     3.289077226     0.6496267809     -0.7764630859
C     2.4660961659     0.2932308355     -1.9196479862
C     3.3037582649     -0.1992729079     0.3283199019
C     0.465958397     -1.0721144003     -2.4419070418
C     1.8569824492     -0.9669928016     -1.986748707
C     -1.6481906244     -2.3418470277     -2.0960715778
C     -2.2429596979     -3.3053251688     -1.1947131464
C     -0.2258813308     -2.3579770509     -2.2924042652
C     -1.5623928701     -4.139884458     0.8939144292
C     -1.5261427295     -4.3468474411     -0.6202614496
C     0.4156794396     -3.2730281093     2.0753771764
C     -0.2731640008     -4.3373238689     1.372004805
C     2.4240886138     -2.0538412029     1.4102615678
C     2.9797868889     -1.5591128091     0.1433115282
C     2.3613295869     -1.9976837519     -1.0696098927
C     1.7314101159     -3.2265968497     1.463811395
C     0.4921820553     -3.5008950424     -1.7349013566
C     -0.19616337     -4.5355216412     -0.976093318
C     0.5607097277     -4.8099167309     0.2568653588
C     1.7047158436     -3.246806112     -1.0136488449
C     1.6889659002     -4.0256100369     0.2424467451


