60

 C     -1.4531235994     -4.1054443691     -0.7628269647
C     -0.3829141227     -4.2361256924     0.1859650348
C     -0.7182601499     -3.5311620971     1.393558441
C     -2.4591272412     -3.3291293957     -0.2125811086
C     -2.0766701862     -3.0429270041     1.1709612609
C     -2.6698485892     -2.1718369077     -1.076311807
C     -0.8928317841     -3.3726526268     -1.9108736716
C     -1.6612277447     -2.1904433314     -2.1173883889
C     0.8418637888     -3.9525533327     -0.4796238527
C     0.4942869482     -3.2757704788     -1.7698098576
C     1.8564609464     -3.396909944     0.2639554851
C     0.2617978619     -2.6816042842     2.0305777735
C     1.5930807191     -2.7673355132     1.5538514045
C     -0.1611469737     -1.3845912776     2.6290365336
C     -2.4253521797     -1.8194716032     1.6737727679
C     -1.5392869021     -1.0634062527     2.5324446082
C     -3.130361611     -0.9398351501     -0.551574811
C     -3.1937124963     -0.8427396114     0.8769567002
C     -2.9051954921     0.2638898722     -1.3294231901
C     -1.0458646572     -0.9650984341     -2.5119485321
C     -1.8340394798     0.2396871974     -2.3314648126
C     1.1743418362     -2.0564594513     -2.1599840308
C     0.4095413     -0.9024755338     -2.5950495369
C     2.8237845999     -2.5881603482     -0.4151030046
C     2.4672888557     -1.8515224199     -1.5645009585
C     2.5182130388     -1.6460872622     1.6688516291
C     3.3554397393     -1.6461593142     0.5195667943
C     0.7782684663     -0.2649990734     2.7805178774
C     2.1521498505     -0.3930282545     2.2775986006
C     0.2499149434     1.0582245768     2.8982429395
C     -2.0181053416     0.2972921269     2.5242425339
C     -3.0586177215     0.4195802327     1.4961347329
C     -1.1511639433     1.3367498477     2.742125361
C     -3.2048405056     1.5097781667     -0.6918160785
C     -3.1670722801     1.5893376156     0.7539849739
C     -2.6612756754     2.732362168     -1.1829444959
C     -1.2042535062     1.4642243331     -2.677925968
C     -1.6976729642     2.7117646936     -2.1930219546
C     1.0592114511     0.4221473027     -2.6045227214
C     0.242102429     1.5480820899     -2.7512237369
C     3.0473669284     -0.5048539104     -1.4438913519
C     3.6817826309     -0.4327831025     -0.144806214
C     2.3913214123     0.6141143105     -1.9866028015
C     2.8558401671     0.7685510697     1.8399527227
C     3.6182746462     0.7391678399     0.5985198838
C     0.9401964219     2.2158057999     2.3880683771
C     2.2427928772     2.0950722013     1.8985325448
C     -1.3166176877     2.6146541217     2.0318355974
C     -2.3636276833     2.7736129888     1.1043788643
C     -2.114572042     3.5048997818     -0.0810880961
C     -0.0098752933     3.1400778884     1.7711715875
C     -0.5810514713     3.5470614908     -1.8032174998
C     0.6043045107     2.8724197607     -2.1796869837
C     -0.7866057737     3.9354660046     -0.4330144501
C     0.2933930843     3.7801300783     0.5108410951
C     2.6866401658     1.8916750848     -1.3647854744
C     3.3304952156     1.9338933623     -0.1071910978
C     2.5843551483     2.8403570477     0.7402551755
C     1.7320499354     2.9869150994     -1.389764085
C     1.5977551798     3.5085722225     -0.0319336636


