60

 C     4.0398152171     0.8512547982     0.7806342999
C     3.3453593206     1.4359788705     1.8443029522
C     2.5084181043     2.4984608718     1.2808325401
C     3.6356905843     1.5400709113     -0.4476886843
C     2.6386749918     2.519839073     -0.1364161742
C     3.4105476431     0.5830349526     -1.4578098108
C     3.9511811692     -0.5517093703     0.541493772
C     3.7241920232     -0.7372343389     -0.8896304385
C     3.2092148527     -1.3448723197     1.4464581625
C     2.5033164186     0.6718256287     2.6925211031
C     2.4649790789     -0.7199369946     2.5227670356
C     1.2512758067     2.5102779277     1.9140289278
C     1.2144768264     1.3938415725     2.8330862477
C     0.1011777816     2.8967737915     1.1727272237
C     1.4621057153     2.6721749354     -0.9452511496
C     0.2243033295     3.0777172244     -0.2709497097
C     2.3227676315     0.7638135939     -2.3771758966
C     1.3947101637     1.8881853214     -2.1795097828
C     1.8094569355     -0.435444765     -2.9869708977
C     3.0233594132     -1.8437765722     -1.3525237003
C     2.1965330782     -1.6942040189     -2.4943550923
C     2.362161534     -2.4128751144     0.9393998329
C     2.2901449866     -2.6983642678     -0.4091588051
C     1.1930893404     -1.4146654938     2.6734471957
C     1.1423179015     -2.4786046435     1.7279442095
C     0.0059388227     0.7369380007     3.092690539
C     -0.0059388227     -0.7369380007     3.092690539
C     -1.1423179015     2.4786046435     1.7279442095
C     -1.1930893404     1.4146654938     2.6734471957
C     -2.362161534     2.4128751144     0.9393998329
C     -0.9938924748     3.0274473546     -1.0123151957
C     -2.2901449866     2.6983642678     -0.4091588051
C     0.1330657787     1.8168081066     -2.8388750998
C     -0.9840577871     2.4917364611     -2.3146874748
C     0.392769557     -0.5558378149     -3.3490162294
C     -0.392769557     0.5558378149     -3.3490162294
C     0.9840577871     -2.4917364611     -2.3146874748
C     0.9938924748     -3.0274473546     -1.0123151957
C     -0.1330657787     -1.8168081066     -2.8388750998
C     -0.1011777816     -2.8967737915     1.1727272237
C     -0.2243033295     -3.0777172244     -0.2709497097
C     -1.2144768264     -1.3938415725     2.8330862477
C     -1.2512758067     -2.5102779277     1.9140289278
C     -2.4649790789     0.7199369946     2.5227670356
C     -3.2092148527     1.3448723197     1.4464581625
C     -2.5033164186     -0.6718256287     2.6925211031
C     -3.9511811692     0.5517093703     0.541493772
C     -3.0233594132     1.8437765722     -1.3525237003
C     -2.1965330782     1.6942040189     -2.4943550923
C     -1.8094569355     0.435444765     -2.9869708977
C     -3.7241920232     0.7372343389     -0.8896304385
C     -1.3947101637     -1.8881853214     -2.1795097828
C     -1.4621057153     -2.6721749354     -0.9452511496
C     -2.3227676315     -0.7638135939     -2.3771758966
C     -3.4105476431     -0.5830349526     -1.4578098108
C     -2.5084181043     -2.4984608718     1.2808325401
C     -3.3453593206     -1.4359788705     1.8443029522
C     -4.0398152171     -0.8512547982     0.7806342999
C     -2.6386749918     -2.519839073     -0.1364161742
C     -3.6356905843     -1.5400709113     -0.4476886843


