60

 C     -1.7303105407     -4.0778221944     0.3947385011
C     -0.4416693656     -4.2143643068     -0.1049778474
C     0.5226392163     -3.7617040946     0.8734721637
C     -1.6247164685     -3.2942396042     1.6132894837
C     -0.2418457656     -3.0978588122     1.9185483027
C     -2.4320599276     -2.1419505587     1.4971990775
C     -2.4624941735     -3.2456071188     -0.5442982931
C     -3.090890677     -2.1933903445     0.175358063
C     -0.3900981821     -3.5956620778     -1.443770248
C     -1.6686543318     -2.9281891261     -1.687146746
C     0.7676217234     -2.9784222926     -1.8275746822
C     1.7574112635     -3.2239228993     0.4525808059
C     1.9467938056     -2.9474606467     -0.9578057087
C     2.3955280557     -2.3336447984     1.37488094
C     0.2072119042     -1.8473329546     2.4705026734
C     1.5857821297     -1.5936655601     2.3404022105
C     -2.0428576594     -0.8595763842     2.0350297848
C     -0.7157018242     -0.699222653     2.5771322145
C     -2.7674449231     0.3042388552     1.5268763527
C     -3.3318141232     -1.0132707201     -0.4889134466
C     -3.410197622     0.2182324313     0.2568977091
C     -1.7075988856     -1.595489318     -2.2447159015
C     -2.7167615761     -0.726404351     -1.7565457555
C     0.7302284436     -1.7192826837     -2.5837734304
C     -0.4662948427     -0.9663171391     -2.7267478664
C     2.7319270228     -1.8355300845     -1.3652848304
C     1.9962506185     -1.0943415669     -2.3902847542
C     3.3804882308     -1.4379790814     0.9257637786
C     3.5267566884     -1.1115493682     -0.4405986632
C     2.1437704185     -0.2515932001     2.4876639472
C     3.2957360284     -0.1891534157     1.6827065463
C     -0.1581828557     0.657975244     2.7347391607
C     1.2951501258     0.882030469     2.6285275327
C     -2.3191822475     1.6042966969     1.9232730613
C     -0.9988132202     1.7647370734     2.5106595952
C     -2.6100029114     2.7430261465     1.1417616073
C     -3.2697581274     1.291956978     -0.6822526916
C     -2.6163373771     0.718097342     -1.8445974467
C     -2.9563077791     2.5790972207     -0.2375073303
C     -0.3541019926     0.5019713472     -2.7994188672
C     -1.4811578363     1.3562994455     -2.4002593203
C     2.1054646068     0.2880551065     -2.4716501328
C     0.9470829429     1.0792175154     -2.7435959898
C     3.642567114     0.3490791546     -0.5406301714
C     3.5320000039     0.8986660728     0.8170097831
C     2.9805575419     1.0210151615     -1.5571641737
C     1.7704679636     2.1018137637     2.0423240657
C     2.8156571243     2.0745039893     1.0517109045
C     -0.4815836736     3.0696991198     2.0629164329
C     -1.4768616464     3.6598268175     1.2210314954
C     0.8551009827     3.1708967167     1.6906975372
C     -2.041646413     3.3588523712     -1.0095657393
C     -1.239819376     2.7320684652     -1.980496553
C     -1.1487795859     4.0691301522     -0.0744294768
C     1.1784664339     2.3980046122     -2.1541426635
C     2.3809507215     2.3280392705     -1.3359183731
C     2.3619219296     2.8995553119     -0.0613549439
C     1.2145376955     3.6670143167     0.3697003893
C     0.1346397605     3.2156617197     -1.7965327465
C     0.1912355346     3.9718888681     -0.5454397261


