60

 C     -2.480051709     -3.0167152421     0.6912152502
C     -1.3018647012     -3.6278758801     1.0500773842
C     -0.5620599057     -3.9766633986     -0.174025271
C     -2.4580686685     -2.8680645799     -0.7905791008
C     -1.2075757217     -3.3566471788     -1.2872206148
C     -2.9637429047     -1.6369013142     -1.1391487358
C     -2.8490033629     -1.7712064643     1.2371552459
C     -3.4323327988     -1.0142772591     0.1196542288
C     -2.02698485     -1.0994642809     2.1860431301
C     -0.4081130558     -3.0040750275     1.9698874838
C     -0.7495029172     -1.7355532746     2.5524970862
C     0.8073079096     -3.789366732     0.0947363261
C     0.9369171274     -3.2438357755     1.4597812945
C     1.6067054876     -3.2804083631     -0.9260877512
C     -0.4479512439     -2.5346431694     -2.1987078598
C     0.9720648185     -2.7242835981     -2.1242369803
C     -2.3027419569     -0.8060940899     -2.1417207881
C     -0.9739331809     -1.2197895434     -2.6187876557
C     -2.6561629532     0.5588922482     -2.1101081459
C     -3.5974923712     0.3264486142     0.1837885167
C     -3.4591652028     1.0867459164     -1.0263444808
C     -2.1634321389     0.3829251624     2.2490845317
C     -2.9912665983     1.0721773911     1.2917285104
C     -1.1412815847     1.142016559     2.8431757139
C     0.368848472     -0.8873380763     2.9810245947
C     0.1178083345     0.4957660511     3.2539281322
C     1.9566066338     -2.3562821357     1.7369810275
C     1.701686194     -1.21581331     2.5857512534
C     2.7666686924     -2.4541042227     -0.5943637721
C     2.9126746448     -1.9654366438     0.7147348764
C     1.8271000853     -1.7072819496     -2.5892030658
C     2.9612378096     -1.5426162561     -1.6535090179
C     -0.0416390315     -0.1653176384     -3.0093297165
C     1.365514087     -0.4589334638     -2.9831330226
C     -1.7139351068     1.6018213691     -2.4882399002
C     -0.410548318     1.2543179499     -2.9041318392
C     -2.93368142     2.3334728776     -0.6620532064
C     -2.6163383922     2.3438556475     0.7565174524
C     -1.9523026377     2.7464252959     -1.6158941703
C     -0.8205589976     2.4782451828     2.3913312838
C     -1.4511368904     3.0418604056     1.230049901
C     1.1429393583     1.4455444369     3.1516434367
C     0.5808361707     2.6550372618     2.5934400734
C     2.6397116601     -0.1808685177     2.1949699402
C     3.2534918907     -0.5775966541     0.9412939329
C     2.3464291754     1.1483150089     2.4420148814
C     3.1951105414     -0.182019969     -1.4565584748
C     2.3336047704     0.5128678637     -2.4247046296
C     3.3581757423     0.3627468909     -0.1286355816
C     0.6258401629     2.2308862333     -2.6055505946
C     1.9786560308     1.7979727202     -2.224818176
C     -0.8894792192     3.5242578466     -1.1679445672
C     -0.6262876491     3.714583423     0.2725388116
C     0.3581505176     3.3492801331     -1.8149631137
C     1.4172124697     3.12723283     1.5675326151
C     2.5101674902     2.1509341085     1.3953178619
C     2.9490565151     1.7640622261     0.10529341
C     2.3952122731     2.5116707934     -1.0112135788
C     0.8161777847     3.7390195846     0.4426584318
C     1.4267227389     3.5000918769     -0.8146329074


