60

 C     -2.2412827745     -3.3000776192     0.4419131658
C     -3.2015509209     -2.303538269     0.5002196833
C     -3.0750999538     -1.6101916571     1.7680501693
C     -1.4469447376     -3.2305697635     1.6799308034
C     -1.8581757146     -2.0748567259     2.391544399
C     -0.1050620895     -3.4300628887     1.3481139109
C     -1.3359960883     -3.3979725311     -0.651401881
C     -0.047726345     -3.7615286654     -0.0874561142
C     -1.4220644138     -2.4971913469     -1.7662458505
C     -3.305813675     -1.3423240629     -0.5560563934
C     -2.4856768241     -1.4766291764     -1.7201921746
C     -3.2588595451     -0.245495229     1.5009133739
C     -3.4572453136     -0.040728427     0.0668612238
C     -2.4653034722     0.6788126651     2.1793924736
C     -0.8543371121     -1.1157394074     2.8316127783
C     -1.2847687549     0.243045959     2.8893562646
C     0.9462982407     -2.6344938162     1.9368115603
C     0.5674167085     -1.3880686409     2.62323438
C     2.2048766126     -2.7296520129     1.2626625152
C     1.1197244581     -3.5322576048     -0.7810300315
C     2.3109301084     -3.2636337866     -0.0588903579
C     -0.152559725     -2.1666065032     -2.4362474491
C     1.0743997768     -2.6784496097     -1.9647273214
C     -0.0357056054     -0.930525149     -3.1575699179
C     -2.2990428204     -0.2587108872     -2.4488019512
C     -1.1429714278     -0.0957555084     -3.2507060054
C     -3.0383521355     1.1690410002     -0.5542346502
C     -2.6006633412     1.0442504386     -1.8959987609
C     -2.2239286654     1.995308156     1.6447941636
C     -2.5066734704     2.281820924     0.2771362525
C     -0.3718539696     1.3539984142     2.8958933128
C     -1.0354114707     2.5021415847     2.2888326725
C     1.4984869543     -0.2432892308     2.6086969808
C     1.014504478     1.1361354408     2.7456795926
C     3.1101570364     -1.6124846781     1.3345511084
C     2.7561530442     -0.4101036791     1.9462557592
C     3.0648041933     -2.2954226515     -0.8418834347
C     2.2691156257     -1.8478414581     -1.9255893356
C     3.6264437353     -1.338336436     0.0063971621
C     1.1259015102     -0.0450017161     -3.018384156
C     2.2333160892     -0.4276791707     -2.2684077197
C     -0.7250048896     1.3051508088     -3.2632077475
C     -1.6394616941     2.0176423538     -2.4597394643
C     0.6575920368     1.3501112599     -3.0356171763
C     -1.6873988449     3.290863445     -0.346458087
C     -1.1550639359     3.0604190368     -1.7016694378
C     -0.2962219168     3.5180004997     1.6891564497
C     -0.688936559     3.9550202574     0.3788519877
C     1.760485934     2.232613183     2.1311904665
C     1.1323568336     3.3907422159     1.6908458074
C     3.265536258     0.6554533816     1.0544543878
C     3.539809941     0.060341891     -0.2423043576
C     2.888965     0.5829118631     -1.3957404831
C     2.785182033     1.9114620736     1.1266492476
C     1.2129854872     2.3421912375     -2.1668017019
C     0.2740701889     3.3316023669     -1.6861088215
C     0.5206216447     4.0195740574     -0.4591580668
C     1.6116360632     3.6823427518     0.3106865818
C     2.3534091499     1.9515848947     -1.3222131077
C     2.5199791647     2.6626360484     -0.0878468777


