60

 C     0.6818662812     -4.3619999705     0.0290578632
C     -0.1377431169     -4.0830532626     -1.0436383691
C     -1.5008415035     -3.8259080432     -0.5429104758
C     -0.0954355946     -4.0308483234     1.2701989787
C     -1.4373340203     -3.73003224     0.8983533847
C     0.6740661109     -3.0957546041     1.9894846318
C     1.9335201499     -3.7319633749     0.098504705
C     1.9791943702     -3.0359096895     1.3713640802
C     2.3706832894     -2.8141207866     -0.9011741855
C     0.1974643884     -3.0464674092     -1.9977131007
C     1.4729848502     -2.3779663779     -1.9413236194
C     -2.0453109704     -2.7877649597     -1.2778012115
C     -0.9817854346     -2.2753223014     -2.1867062059
C     -2.9542851112     -1.864577006     -0.6651651412
C     -2.0777877079     -2.6469622961     1.5208517153
C     -2.987525834     -1.8290747407     0.7741082172
C     0.0964718251     -1.8472269773     2.4750498032
C     -1.3119036859     -1.7353134916     2.3679248408
C     0.8920877689     -0.6188795652     2.48837861
C     2.6748403075     -1.8363204997     1.2413129176
C     3.1095591133     -1.7922421177     -0.1710778174
C     2.2245055665     -0.6312212506     1.8556146225
C     3.3840052313     -0.6111510022     -0.7547328764
C     1.5420568931     -0.9745149592     -2.3876802746
C     2.7096304979     -0.2427534317     -1.999677187
C     -0.950483361     -0.890114662     -2.546181874
C     0.3437690201     -0.1994825378     -2.678282173
C     -3.1519509577     -0.6477180887     -1.3639141983
C     -2.1288979266     -0.1557596412     -2.2822073767
C     -3.6494298437     0.4831977048     -0.6815055947
C     -3.0679195501     -0.5341172965     1.4342162937
C     -1.9541295404     -0.4445882281     2.3343717216
C     -3.4838476845     0.5909981238     0.7301225761
C     0.2160216985     0.6538079371     2.651230751
C     -1.2292442627     0.7606239858     2.510971855
C     0.9932149202     1.8634982441     2.4795695527
C     2.8317451036     0.6042395785     1.3588413811
C     3.5001332069     0.5878301916     0.0721126253
C     2.2858033228     1.8335491297     1.7632611789
C     2.7308638029     1.1506120115     -2.0279060423
C     3.3444548781     1.6769603535     -0.7924910929
C     0.3618172842     1.2703988074     -2.5981772359
C     1.5975237325     1.9319385742     -2.307276382
C     -2.1012370253     1.3019831227     -2.191269393
C     -3.0978319585     1.681664337     -1.2617925446
C     -0.8658266711     2.0128936586     -2.2771019581
C     -2.8875087316     1.8840029641     1.023526844
C     -1.8294808624     2.0044628922     1.9731542775
C     -2.8030863967     2.615704534     -0.2396595702
C     0.3937591024     3.1012502039     2.2693391268
C     -1.0003446788     3.1671276892     1.8567093308
C     2.3505073551     3.022169963     0.9476202755
C     2.6905294271     2.8655388441     -0.4216263109
C     1.6637184375     3.1205180362     -1.4436404582
C     1.2069765971     3.8155327366     1.2845856386
C     -0.7807218713     3.2381558474     -1.519830439
C     -1.7439952524     3.4956683478     -0.4521274499
C     -1.0352432885     3.9645260447     0.6841242297
C     0.4959973982     3.768165455     -1.0839743377
C     0.3413606113     4.232110017     0.2846026674


