60

 C     -0.2580559103     -4.6933078934     0.2415102625
C     0.9096869952     -4.3240470758     -0.5293899541
C     1.8635404454     -3.8293671079     0.3610464331
C     -0.0993406089     -4.0735895486     1.5743572037
C     1.201894284     -3.6201919874     1.6854095876
C     -1.1757319827     -3.1307955907     1.8116104859
C     -1.3420773258     -4.0497738825     -0.3361965144
C     -2.0792005064     -3.3145183178     0.6838636018
C     0.4871137759     -3.4313910515     -1.6180385158
C     -0.9441922628     -3.315158154     -1.546222386
C     1.2589120742     -2.3030254027     -2.0012474835
C     2.6004154505     -2.6801702825     0.0575460735
C     2.4771111499     -2.0439628147     -1.2205713515
C     1.4828686648     -2.2864429052     2.0870131209
C     2.5128600376     -1.7932813023     1.2054309847
C     -0.9421106174     -1.7998039693     2.2985607915
C     0.4431795237     -1.3663086472     2.4754861122
C     -1.9630695833     -0.7704560981     2.0197653285
C     -2.8687840128     -2.2934011888     0.2759556565
C     -3.0102086335     -1.1186849988     1.1133178617
C     -1.6246574004     -2.12440326     -1.8991843349
C     -2.8190955266     -1.8382659517     -1.1289502378
C     0.5588642491     -1.1397995487     -2.588009398
C     -0.8843301712     -0.9997409846     -2.4804266161
C     1.3221700877     0.0491461662     -2.7991934808
C     3.0663270545     -0.7643341456     -1.2869653814
C     2.6187752063     0.1524147392     -2.2589915085
C     2.8097324938     -0.4216983121     1.1242513692
C     3.3668653924     0.0211578497     -0.1031012924
C     0.7622846262     0.0466500529     2.4985828497
C     2.0561981584     0.4865578111     1.9781180721
C     -1.6656483724     0.6461795449     2.2087477427
C     -0.3151825955     1.0302291309     2.6375909512
C     -2.4657630067     1.6532919026     1.5074076831
C     -3.5614972725     -0.1229469383     0.2724712835
C     -3.3133887575     -0.5541092856     -1.1213171675
C     -3.2746379467     1.2099310682     0.4084565082
C     -1.4659814321     0.3578372089     -2.4581489855
C     -2.7110537846     0.5278173576     -1.7963063737
C     -2.9395505189     1.7036375956     -0.9587729991
C     0.7514083713     1.3905767687     -2.7502928121
C     -0.6188810026     1.5705997783     -2.5523795665
C     2.8381434936     1.5190561848     -1.8007548779
C     3.2937567078     1.4329394252     -0.4594963762
C     1.7201849866     2.3017152417     -2.1240171909
C     2.2717987655     1.8690636688     1.7620746516
C     2.8078095596     2.3485145302     0.4645732944
C     0.0327529116     2.4156760853     2.6145655633
C     1.354591109     2.8065558929     2.2257793992
C     -1.9929649752     3.0008156771     1.379663582
C     -0.860053048     3.4172702711     2.0745141372
C     -2.2249616037     2.8477943891     -1.1049331994
C     -1.0208242778     2.8191806519     -1.9310536961
C     -2.0034703923     3.6669492866     0.0523302492
C     1.3048110354     3.3596377056     -1.2420211002
C     1.973893739     3.4404470191     0.0346292383
C     1.226057561     3.8580654745     1.2141744224
C     -0.0803614954     4.2688998231     1.1568337991
C     -0.0940608564     3.7084287804     -1.2947652802
C     -0.7548723297     4.2759394638     -0.1148903199


