60

 C     0.7720974847     -4.3206480861     -0.5121116835
C     0.3977696616     -3.7484469199     -1.7234467849
C     -1.0561685063     -3.5031858311     -1.706103759
C     -0.4227185936     -4.2368884775     0.3805083906
C     -1.5500182666     -3.8409053387     -0.3921831595
C     -0.0528512464     -3.5263364933     1.5543903372
C     1.8713122207     -3.7983651014     0.1794158474
C     1.3601771182     -3.341290345     1.4985660118
C     2.6371699377     -2.746258639     -0.3452554311
C     1.0554502398     -2.5661641805     -2.2026163545
C     2.2246948956     -2.0579514685     -1.5596291885
C     -1.2931855471     -2.2234822007     -2.2082336217
C     0.0137818526     -1.6351454632     -2.5640620686
C     -2.345289509     -1.3909217287     -1.6834664918
C     -2.470378464     -2.9954812599     0.2105702969
C     -3.0659673882     -1.9089071079     -0.553488559
C     -0.8747123518     -2.4483873515     2.0674820945
C     -2.1949202227     -2.4407123654     1.5389202709
C     -0.2577974157     -1.1648791786     2.4927622917
C     1.952102879     -2.1382699376     1.8536173433
C     2.9495528615     -1.899345158     0.8065127801
C     1.1822001184     -1.0088631116     2.358523775
C     3.4099907817     -0.6614989534     0.6196905235
C     2.4995076434     -0.6318484445     -1.6890028808
C     3.4384402466     -0.0698326972     -0.733543292
C     0.1937640196     -0.2495226118     -2.5698635789
C     1.5411750802     0.280723329     -2.2696494327
C     -2.2433482006     0.0447227827     -1.8794827564
C     -1.0057840985     0.5844419693     -2.4430750547
C     -3.0636053572     0.9393364933     -1.0498444514
C     -3.6031632877     -0.9843450539     0.38305174
C     -2.9522959451     -1.2623812407     1.6392788035
C     -3.5726840687     0.3929066944     0.1805962335
C     -1.0745548323     0.0551393844     2.545462095
C     -2.4533697392     -0.0499295334     2.1797932982
C     -3.1068771902     1.0003250257     1.4365756141
C     -0.4588573508     1.3964281787     2.4543265549
C     1.8085002259     0.3146585166     2.2694832887
C     3.0611666776     0.3957667986     1.5591476779
C     0.9970239199     1.5363346966     2.3527163841
C     3.5678353861     1.2854836566     -0.5510140836
C     3.4638217496     1.5789089768     0.9157539903
C     1.6928082355     1.7270448062     -2.0767433289
C     2.7590466391     2.235643541     -1.2399163927
C     -0.8014513311     1.995440078     -2.4164022464
C     0.5382391604     2.549361169     -2.1837278492
C     -2.7818188458     2.3316812453     -1.0245846221
C     -1.7641500118     2.8735772673     -1.8792874164
C     -2.5770005796     2.2618230841     1.4082894908
C     -1.2632491643     2.4903912305     2.0037381883
C     -2.7178467286     3.0477733731     0.2257788911
C     0.3497198514     3.7275059559     -1.3534117807
C     -1.0500311853     3.9075592891     -1.1625824755
C     -0.6963683617     3.6197159747     1.281542762
C     -1.5671895745     3.9003449437     0.1487802223
C     1.5240790486     2.7598850602     1.8045358451
C     2.7369811121     2.7301283777     1.0476805863
C     2.4541416376     3.2713378168     -0.2908718878
C     0.6646357228     3.7053497488     1.1172206711
C     1.2204668564     3.9104548151     -0.2511114676


