60

 C     1.4773562856     4.1979043291     0.6604597915
C     0.1564645485     4.540445014     0.4790360894
C     -0.2400974531     4.2821987623     -0.9459951812
C     1.9783829331     3.7840981547     -0.6697841587
C     0.8569551819     3.6647283279     -1.5950218389
C     2.8234213271     2.7261772839     -0.4972894214
C     1.8201032334     3.1331567969     1.5960963326
C     2.803571353     2.3572349258     0.9345250349
C     0.7754022633     2.4036803855     2.3042325974
C     -0.8553297693     4.0111334141     1.302906112
C     -0.5660249489     2.9246584722     2.1874983896
C     -1.5326697902     3.703828652     -0.9323275532
C     -1.9620043248     3.6065489537     0.4495082239
C     -1.776863738     2.6137636274     -1.7880784911
C     0.6644058936     2.4178353358     -2.3215959523
C     -0.6918192212     2.0230943843     -2.5189109351
C     2.69407144     1.5060988423     -1.2416749783
C     1.6486825009     1.3225225843     -2.1848383624
C     2.8744460733     0.9707063755     1.0230752584
C     2.9990761177     0.4294679424     -0.3237260094
C     0.9355794295     0.9549808408     2.5208163721
C     2.0587455033     0.2482466768     1.9359759618
C     -0.2341354952     0.1341802642     2.8139204676
C     -1.6730592857     1.9925428663     2.060746203
C     -2.4881273819     2.3993215445     0.9231909909
C     -1.5618816881     0.649057835     2.4246020179
C     -2.6319711435     1.5173987754     -1.3648652686
C     -2.9680112512     1.3802886523     0.0156855309
C     -1.0384208586     0.6395098547     -2.7666071623
C     -2.2855007942     0.3412308712     -2.1096230106
C     1.2891348581     -0.0687711669     -2.482881788
C     -0.0683409652     -0.3675192357     -2.9326523196
C     2.7011915717     -0.8926273329     -0.6059123008
C     2.0255715296     -1.1580292519     -1.8694813206
C     2.0768527241     -1.1900208108     1.7804962349
C     2.5360396037     -1.7932327334     0.533874512
C     -0.0892533534     -1.2557965766     2.9260146001
C     1.1268194623     -1.9270056355     2.5480248419
C     -1.1755922575     -2.1952119457     2.5661444734
C     -2.4668576465     -0.2688855083     1.8084963826
C     -3.0841121358     0.0690445746     0.5463810359
C     -2.2639861645     -1.6846991471     1.8497777426
C     -2.542227107     -0.974966968     -1.6120894401
C     -2.9949474632     -1.1103961465     -0.2600718274
C     -2.588012245     -2.2431708586     0.5615288158
C     -0.5499573273     -1.7155658241     -2.8585039243
C     -1.7597553721     -2.0369939814     -2.1148267207
C     1.59504778     -2.5058679743     -2.0728289118
C     0.3396126865     -2.7724314632     -2.6536823515
C     2.2182671412     -3.1672950994     0.2516753769
C     1.8231659808     -3.5123495401     -1.0544708342
C     0.8245059457     -3.2941445537     2.2497557979
C     -0.6290221443     -3.4281586454     2.1747200254
C     1.3873468456     -3.9376685131     1.167975088
C     -1.8867363256     -3.3695329162     0.0329696915
C     -1.5529836517     -3.2863518976     -1.3831030205
C     -0.3229628516     -3.8133816704     -1.8362436041
C     0.6190466687     -4.3618677178     -0.9502643517
C     -0.9521726293     -4.0578075627     0.9213791475
C     0.3035697016     -4.555334543     0.3958619984


