60

 C     -1.8157744362     -4.2880022214     -0.3091783106
C     -0.6287546867     -4.3990904323     -1.1474882641
C     0.469077181     -4.6344678781     -0.2994555431
C     -1.3434664369     -4.0923228344     1.0699305642
C     0.011575583     -4.3566858047     1.1148377215
C     -1.7936289552     -2.7976620562     1.5559881405
C     -2.4380037832     -3.0993794996     -0.6513047442
C     -2.59584592     -2.2295962956     0.5025367528
C     -0.5638787861     -3.2510130741     -2.0345844635
C     -1.7778469344     -2.4889384171     -1.7956255416
C     0.6588782997     -2.5060191941     -2.225956121
C     1.6608094177     -3.9475624517     -0.4806061663
C     1.8071122869     -2.9209168808     -1.462231855
C     0.9357050707     -3.4300559887     1.7183319033
C     2.0092835243     -3.3170130395     0.8001466187
C     -0.9395899106     -1.9193040696     2.3013078413
C     0.4837911921     -2.2207909929     2.3695545979
C     -1.3863896143     -0.5447265144     2.414987479
C     -2.7235306555     -0.8506950005     0.3274636811
C     -2.4033361012     -0.0246960508     1.4868758423
C     -1.8456439214     -1.1129801117     -1.9718473586
C     -2.5645639753     -0.283075729     -0.9943636681
C     0.5618997039     -1.0999984291     -2.6195908658
C     -0.751352082     -0.4773448764     -2.6885414627
C     1.6923332342     -0.1977061956     -2.4129377925
C     2.6114483881     -1.8642568282     -0.8571354201
C     2.6758499109     -2.1008572587     0.5664085596
C     2.6301882973     -0.5565411268     -1.3527578906
C     1.4050651471     -1.0900945384     2.4232504571
C     2.5191067499     -1.0276840779     1.4758348375
C     -0.5065377046     0.4045176754     2.9794641298
C     0.9135443503     0.1511975858     2.8880401056
C     -0.7327491344     1.8250484142     2.8742415286
C     -2.5975092634     1.3436393915     1.3792399949
C     -1.8651804705     2.2919125315     2.1899266016
C     -2.5645826912     1.1497487067     -1.1291698177
C     -2.8093792454     1.9578338818     0.0527963599
C     -0.8612397557     0.906098336     -2.9155944225
C     -1.8331378842     1.744845609     -2.1890557663
C     1.540290564     1.1825163632     -2.6909661912
C     0.2905905618     1.6791609613     -3.1140683557
C     2.107307181     2.2300426249     -1.8250970022
C     3.035142951     0.4596927154     -0.4270409508
C     2.9385697795     0.2370690616     0.9850184715
C     2.7809774593     1.8604622068     -0.6786649111
C     1.5451356009     1.4236268931     2.5961904238
C     0.5491247695     2.4766345956     2.6530171977
C     2.5291446222     1.4708978883     1.6064131155
C     2.5090278496     2.5181190887     0.6046153481
C     0.6394804117     3.589653034     1.7941411822
C     1.6054185877     3.5640888716     0.693894562
C     -1.7868630659     3.5108770349     1.4467527031
C     -2.3882000977     3.2869997972     0.116184308
C     -0.5701229792     4.1460590522     1.2596569627
C     -1.2796177513     3.076165934     -2.0539937814
C     0.0600424195     3.0058473166     -2.5539681574
C     1.1675032549     3.3623341995     -1.7633739523
C     0.9319258568     4.0397940208     -0.5281579387
C     -1.5182536191     3.841559355     -0.8860449997
C     -0.3903703446     4.3930343215     -0.188246477


