60

 C     0.1934765006     -5.1589417961     0.
C     1.5141743886     -4.6405957869     0.
C     1.6956870323     -3.7630707815     1.1229628122
C     -0.4650159263     -4.5489777801     1.1409305716
C     0.4688550227     -3.6634773412     1.8464690802
C     -1.7030479127     -3.994993642     0.7477344987
C     -0.4650159263     -4.5489777801     -1.1409305716
C     -1.7030479127     -3.994993642     -0.7477344987
C     1.6956870323     -3.7630707815     -1.1229628122
C     0.4688550227     -3.6634773412     -1.8464690802
C     2.4038699525     -2.5520398683     0.7205345506
C     2.4038699525     -2.5520398683     -0.7205345506
C     2.1889913334     -1.3575185465     1.3982373545
C     0.067619166     -2.3713738486     2.3085968456
C     1.080975664     -1.3118162719     2.356926866
C     -2.0799635917     -2.716694548     1.1666126567
C     -1.3024433803     -1.9322699331     2.0960448571
C     -2.0799635917     -2.716694548     -1.1666126567
C     -2.568581141     -1.9801239095     0.
C     0.067619166     -2.3713738486     -2.3085968456
C     -1.3024433803     -1.9322699331     -2.0960448571
C     2.1889913334     -1.3575185465     -1.3982373545
C     1.080975664     -1.3118162719     -2.356926866
C     2.5471202545     -0.1204663286     0.7109748356
C     2.5471202545     -0.1204663286     -0.7109748356
C     2.3798219335     1.1471445966     1.4249121538
C     0.6741887641     -0.0470928306     2.7639624253
C     1.4371961186     1.1649681778     2.4941561329
C     -1.6491952345     -0.541042174     2.2117735033
C     -0.7134741764     0.3234751379     2.8286202273
C     -2.7748784975     -0.6156621858     0.
C     -2.5675713146     0.0947818782     1.2631265781
C     -1.6491952345     -0.541042174     -2.2117735033
C     -2.5675713146     0.0947818782     -1.2631265781
C     0.6741887641     -0.0470928306     -2.7639624253
C     -0.7134741764     0.3234751379     -2.8286202273
C     2.3798219335     1.1471445966     -1.4249121538
C     1.4371961186     1.1649681778     -2.4941561329
C     2.6181401439     2.3651344233     0.7411782186
C     2.6181401439     2.3651344233     -0.7411782186
C     1.9883483573     3.566621485     1.1711341542
C     0.5729130146     2.29807495     2.6731252378
C     -0.7873451269     1.7618926882     2.7581602115
C     0.8228552028     3.499163399     2.0038747374
C     -2.6705923633     1.4930716048     1.2516400759
C     -1.8056088916     2.3589576922     2.0341937941
C     -2.6705923633     1.4930716048     -1.2516400759
C     -2.8619657165     2.1697751742     0.
C     -0.7873451269     1.7618926882     -2.7581602115
C     0.5729130146     2.29807495     -2.6731252378
C     -1.8056088916     2.3589576922     -2.0341937941
C     1.9883483573     3.566621485     -1.1711341542
C     1.65988969     4.3393631116     0.
C     0.8228552028     3.499163399     -2.0038747374
C     -0.2720437485     4.1681293312     1.2693852319
C     -1.5378373531     3.5858884616     1.2536952569
C     -2.2360064107     3.4441990291     0.
C     -1.5378373531     3.5858884616     -1.2536952569
C     0.2890059095     4.6290460984     0.
C     -0.2720437485     4.1681293312     -1.2693852319


