60

 C     0.7065560908     -0.2093615239     -4.6464905317
C     -0.7065560908     0.2093615239     -4.6464905317
C     -0.7760792492     1.3759471766     -3.9023301049
C     1.456134243     0.760188739     -3.8490433317
C     0.5701802012     1.7881482494     -3.4614983185
C     2.2048997036     0.0986028741     -2.7909916115
C     0.7760792492     -1.3759471766     -3.9023301049
C     1.8068348395     -1.2759807489     -2.8490798073
C     -1.456134243     -0.760188739     -3.8490433317
C     -0.5701802012     -1.7881482494     -3.4614983185
C     -1.8068348395     1.2759807489     -2.8490798073
C     -2.2048997036     -0.0986028741     -2.7909916115
C     -1.6928983743     2.0294782746     -1.694803515
C     0.7130552273     2.4291974553     -2.2205742262
C     -0.5010550838     2.8982043029     -1.5469005379
C     2.3915139379     0.7249039983     -1.5323748792
C     1.8306673107     2.0515620859     -1.3674803604
C     2.5776672203     -0.108206318     -0.3415538193
C     1.6928983743     -2.0294782746     -1.694803515
C     2.3160419702     -1.5166203302     -0.4629064304
C     -0.7130552273     -2.4291974553     -2.2205742262
C     0.5010550838     -2.8982043029     -1.5469005379
C     -2.3915139379     -0.7249039983     -1.5323748792
C     -1.8306673107     -2.0515620859     -1.3674803604
C     -2.3160419702     1.5166203302     -0.4629064304
C     -2.5776672203     0.108206318     -0.3415538193
C     -2.1591831161     2.3106913766     0.7167424508
C     -0.3524796295     3.5804889462     -0.3500668496
C     -1.3342615258     3.4481867243     0.7079152298
C     1.8941102695     2.6403573493     -0.0893962928
C     0.9319665393     3.5989680355     0.2947896885
C     2.5611477245     0.510813979     1.0043738825
C     2.3087832577     1.8918198935     1.0873763428
C     2.2916164603     -0.3043823418     2.2059456657
C     2.1591831161     -2.3106913766     0.7167424508
C     2.1207988864     -1.6993882673     2.0538085892
C     0.3524796295     -3.5804889462     -0.3500668496
C     1.3342615258     -3.4481867243     0.7079152298
C     -1.8941102695     -2.6403573493     -0.0893962928
C     -0.9319665393     -3.5989680355     0.2947896885
C     -2.5611477245     -0.510813979     1.0043738825
C     -2.3087832577     -1.8918198935     1.0873763428
C     -2.1207988864     1.6993882673     2.0538085892
C     -2.2916164603     0.3043823418     2.2059456657
C     -0.6413696353     3.4696556993     1.9832278926
C     0.7350609289     3.5122412479     1.7214397667
C     1.6166176022     2.4937880679     2.2393082229
C     -1.1653292844     2.4496044845     2.8388899089
C     1.6142923476     0.3059454167     3.3324672887
C     1.1695127662     1.6909815585     3.2675937743
C     -0.2616711369     1.7353347259     3.6539278235
C     -1.6142923476     -0.3059454167     3.3324672887
C     0.6025458012     -0.4254344943     3.9976840895
C     -0.6025458012     0.4254344943     3.9976840895
C     1.1653292844     -2.4496044845     2.8388899089
C     0.6413696353     -3.4696556993     1.9832278926
C     -0.7350609289     -3.5122412479     1.7214397667
C     -1.6166176022     -2.4937880679     2.2393082229
C     0.2616711369     -1.7353347259     3.6539278235
C     -1.1695127662     -1.6909815585     3.2675937743


