60

 C     2.5425381355     -3.5569642306     0.4034933801
C     1.6967706888     -3.7271536052     -0.7650385994
C     1.8630134857     -2.6150039804     -1.6148306871
C     3.233546277     -2.3163352909     0.2721462806
C     2.8815110535     -1.7446578185     -0.9782502286
C     2.9462323303     -1.4841131366     1.4184903357
C     1.630320341     -3.3823183892     1.4607016635
C     1.8636809411     -2.1325027515     2.1356544592
C     0.3629274633     -4.0674130316     -0.3501472379
C     0.2807404572     -3.7429619585     1.0704315922
C     -0.6925584372     -3.7081269896     -1.18947846
C     0.7367882079     -2.0043974792     -2.289208553
C     -0.514801845     -2.6488836774     -2.1915500349
C     0.7729828681     -0.5778672192     -2.5858788502
C     2.8499804085     -0.348562853     -1.16869459
C     1.9739409697     0.1830980276     -2.2175830688
C     2.9994429022     -0.0854222524     1.2907244372
C     3.1846044594     0.5017464502     -0.0329110837
C     2.1968524158     0.6420397986     2.2119239473
C     0.773431834     -1.3650311047     2.6202505138
C     1.05746167     0.0184146857     2.8188288575
C     -0.83713572     -3.0299209333     1.5835973465
C     -0.6208415437     -1.782705325     2.3667762358
C     -1.9417740797     -3.5039157395     -0.5855856806
C     -2.0437179196     -3.157767847     0.7955612286
C     -1.7584275729     -1.885862501     -2.2508491808
C     -2.69159118     -2.5194976813     -1.3776609547
C     -0.4732945041     0.1459985812     -2.7495279703
C     -1.7449887641     -0.4687877543     -2.3745777987
C     -0.4387336494     1.5750350251     -2.8037288372
C     1.9686914076     1.5819157769     -2.3966156505
C     0.7785840704     2.2550557405     -2.8225414343
C     2.9786708237     1.8990802729     -0.1698551612
C     2.5732344916     2.4264114545     -1.401531449
C     1.8993553703     2.0471927864     2.0272191598
C     2.3425244128     2.7007320842     0.890952415
C     0.0251313102     1.0146157886     2.9403231887
C     0.5752511407     2.3023225306     2.5550580986
C     -1.6351491538     -0.7542491065     2.3768220419
C     -1.3202285599     0.6549428496     2.6823376869
C     -3.031135531     -2.135040044     0.8664460102
C     -3.4485876577     -1.7529815222     -0.5166902243
C     -2.8452243734     -0.9768288474     1.5948547517
C     -2.7106807153     0.330521136     -1.6041809884
C     -3.4772592353     -0.3556053985     -0.6120112728
C     -3.3861547875     0.1262435168     0.7731335013
C     -1.4311067221     2.397048639     -2.0819297396
C     -2.4582989551     1.7574293006     -1.3649011104
C     0.6224647922     3.483406058     -2.0430819341
C     1.6980110746     3.5783454222     -1.1715623977
C     1.5024526264     3.7200800047     0.2482697938
C     -0.7243723659     3.5522430713     -1.5557484958
C     -0.2311780216     3.2718849026     1.9552872852
C     0.2125091583     3.9547442532     0.7292719371
C     -0.9276081207     3.939765006     -0.2101985522
C     -2.1438368112     1.7133726322     2.1348105641
C     -3.0557058317     1.4023615305     1.0309504161
C     -2.8010496109     2.3260734791     -0.0757859756
C     -1.61171464     2.9708657021     1.8303790491
C     -2.026491379     3.3578924614     0.4674398244


