60

 C     1.1152735342     4.0295181042     1.4344925466
C     1.6715353123     3.8733032355     0.168257121
C     0.6138163511     3.9141709293     -0.8453001088
C     -0.322053758     4.0421985209     1.2973168914
C     -0.6311243075     4.1150907685     -0.1162440361
C     -0.8225605745     2.9531754163     2.0319805336
C     1.5120429931     2.8988180266     2.2445438136
C     0.3361067269     2.2549996495     2.6681355677
C     2.6123854684     2.7677061937     0.2134487693
C     2.5001091931     2.1272766089     1.5258632855
C     2.7041134194     1.9458136777     -0.8866523219
C     0.6601517539     2.9981197535     -1.9417327378
C     1.7557541132     2.0674610142     -2.0097654572
C     -0.5855841671     2.5162237244     -2.4901778332
C     -1.7895452192     3.480102028     -0.5616268551
C     -1.779562859     2.8642495437     -1.8395606556
C     -1.9381433445     2.1669973135     1.5608282453
C     -2.5143531184     2.5533455378     0.324870989
C     -2.0638751728     0.7741294522     2.0269585807
C     0.3183516929     0.8587906462     2.8565549603
C     -0.967916914     0.1621930229     2.7893238679
C     2.5264732554     0.7277388398     1.6594711615
C     1.5453924327     0.1215864672     2.5513072256
C     3.0434339851     0.5582469947     -0.7269181912
C     2.9808330857     -0.0921547646     0.5206953919
C     1.5959838665     0.7769523859     -2.5647682123
C     2.5334474877     -0.115195711     -1.9090357461
C     -0.7549195895     1.1290393133     -2.9470560478
C     0.3126317552     0.2345955413     -2.9874072819
C     -2.6735827596     1.7076638255     -1.8383243431
C     -3.1478585477     1.5417975548     -0.5158730592
C     -2.0796852332     0.6474430442     -2.5373749732
C     -2.8959951997     -0.1052553779     1.2916324773
C     -3.3113054705     0.246318216     -0.0510793683
C     -2.7144448804     -1.5369484529     1.3098187624
C     -0.9370223647     -1.244070507     2.9297452154
C     -1.8251983406     -2.1254179756     2.1832238515
C     1.4977215555     -1.2863818336     2.6170502735
C     0.3144130012     -1.9214279998     2.9976384963
C     2.7939913787     -1.5543161806     0.520393676
C     2.1709398336     -2.1547058325     1.627225589
C     2.3544996325     -1.4554406094     -1.9435830048
C     2.6689236168     -2.2521837617     -0.7564626674
C     0.0594272633     -1.2213894876     -2.8801707725
C     1.1864375869     -2.0468282613     -2.6076566738
C     -2.2726455547     -0.700801858     -2.1071876698
C     -3.0487940006     -0.8795992056     -0.9179928956
C     -2.8266210927     -2.0229401805     -0.0695484355
C     -1.2596333768     -1.7008977729     -2.4419668405
C     -2.0752113932     -3.0864024968     -0.5105938671
C     -1.3463372725     -2.9699932398     -1.7806433595
C     -1.0873524541     -3.324650545     1.7706353579
C     0.2163164854     -3.1975754474     2.2935654146
C     1.3802838861     -3.3772954859     1.4933104362
C     -1.2402841952     -3.8334399172     0.4444921718
C     1.9593031914     -3.4475127639     -0.8713555319
C     1.0437176166     -3.3299108011     -2.0347888476
C     -0.2012357268     -3.7946624785     -1.6428038579
C     1.2297720658     -4.0013307428     0.2283439677
C     -0.1007366528     -4.2763357596     -0.2474730882


