60

 C     1.3610133731     -4.1033884442     0.2144879361
C     0.317281195     -4.1970927679     -0.7117750037
C     -0.9292659391     -4.0368801447     0.0219441133
C     0.7899522127     -3.6916482483     1.5293589509
C     -0.5981217978     -3.5731099134     1.3606732954
C     1.5587013127     -2.5874049391     2.0333233083
C     2.4360423371     -3.2711812606     -0.0623014295
C     2.6501394454     -2.4338081947     1.136084524
C     2.4445798346     -2.3938974354     -1.1764683345
C     0.2784329949     -3.3341099076     -1.8582878078
C     1.3232860202     -2.3589019703     -2.0881019632
C     -1.8333985468     -3.3158639546     -0.7672971424
C     -1.1142120905     -2.9197975618     -1.9863249072
C     -2.6928644258     -2.3931392786     -0.1518913615
C     -1.2957159437     -2.4359145383     1.9258919926
C     -2.4640433973     -2.0173516608     1.235746239
C     0.9430947381     -1.407162493     2.5892425005
C     -0.5211093437     -1.4173303972     2.6836798487
C     1.6491718916     -0.1331421048     2.482807356
C     3.0975391239     -1.1773217255     0.7598020236
C     2.9853693372     -1.1267438569     -0.6923600402
C     2.7613143514     -0.0451274092     1.5438356662
C     2.7727897232     0.1020682401     -1.343170273
C     0.973468741     -1.0575197229     -2.6922138938
C     1.7939715382     0.156022675     -2.4401538777
C     -1.426053279     -1.7222546272     -2.5782758329
C     -0.377795771     -0.8442287521     -3.0544891265
C     -3.091446253     -1.1910557791     -0.8329987563
C     -2.4914458172     -0.8709512405     -2.0566177307
C     -2.9836503875     -0.681404566     1.4080299346
C     -3.3321472475     -0.1264625361     0.1279379814
C     -1.1662805093     -0.2081173006     2.9938929636
C     -2.4423589897     0.1242756427     2.4009328678
C     0.9520457669     1.1172305447     2.8129743103
C     -0.4308080973     1.0437058453     3.1417713341
C     1.4133270909     2.3760265402     2.2683157608
C     3.0547252047     1.1816455839     0.902397274
C     3.0430487778     1.2558936809     -0.5509418009
C     2.5057325356     2.3862415006     1.3745724885
C     2.5420011224     2.5703465377     -0.9299726647
C     2.2366848877     3.2844502098     0.2638663485
C     1.2805269504     1.4277261569     -2.7616859369
C     1.6612308818     2.6446747439     -2.0159955111
C     -0.9425986132     0.4799402605     -3.1095789931
C     -2.1973623294     0.4948151403     -2.3840358796
C     -0.1169939089     1.5863326395     -3.1103359464
C     -3.0741967086     1.2451634683     -0.1806383153
C     -2.5126306225     1.5748301887     -1.4952411709
C     -2.4694801959     1.5286382553     2.19105173
C     -1.298724513     2.1207891703     2.7808783734
C     -2.7343302305     2.1050549831     0.9246110512
C     0.4798966664     3.398538957     1.7726912568
C     0.9707506596     3.8818041934     0.4797083499
C     -0.8775778213     3.1874225784     1.9519032608
C     -1.7976725236     3.2189171871     0.7815694324
C     0.5007913516     3.4711574448     -1.8697523727
C     -0.6048676981     2.7739025728     -2.4895122231
C     -1.717074246     2.7674438359     -1.6273377469
C     0.0801158255     3.9898803314     -0.6190557323
C     -1.3227986442     3.5773737233     -0.4571705981


