60

 C     1.1146143435     -4.1438407138     0.996942788
C     0.6212838322     -4.1889738     -0.3600286689
C     1.428594661     -3.3318469033     -1.1606055851
C     2.2445302589     -3.2652250491     1.0470542238
C     2.5351378279     -2.8690853285     -0.2987712028
C     1.9921411667     -2.2420380173     2.0042032846
C     0.0948448879     -3.6209564568     1.8039904228
C     0.5918306769     -2.4196340881     2.4425308641
C     -0.7928891965     -3.9982668189     -0.3332330971
C     -1.1347023274     -3.5690006882     1.0273626389
C     -1.3754348425     -3.3245902813     -1.4117031681
C     0.8309348582     -2.3916710347     -2.0906494469
C     -0.562056732     -2.4855539901     -2.2945001717
C     1.4709016762     -1.0807248019     -2.3502303285
C     3.0585979019     -1.6156450202     -0.5041911491
C     2.6614374974     -0.7928078117     -1.6492510475
C     2.5103735262     -0.946275294     1.8093125281
C     3.2575763766     -0.717358357     0.6047821124
C     1.7936312541     0.1921076598     2.3826308208
C     -0.2342067419     -1.3000733975     2.6147416541
C     0.3936800241     0.0370241584     2.7533154931
C     -2.0411920969     -2.519610839     1.2465130655
C     -1.6470991413     -1.415559741     2.1597524181
C     -2.5585989989     -2.6087692788     -1.1594133164
C     -2.9108693562     -2.1928665272     0.1296367109
C     -1.3531783744     -1.2974642694     -2.6432023676
C     -2.6142102931     -1.4237301892     -2.0369515484
C     0.6770235153     0.0744036951     -2.818959485
C     -0.7797430974     0.0001322724     -2.8095151646
C     1.2630815913     1.3669667063     -2.7489525893
C     3.0703916645     0.5557586951     -1.357933077
C     3.4067803485     0.6055726406     0.0661142257
C     2.4572193661     1.6271849504     -1.9681686717
C     2.282607968     1.4889926209     2.0457633829
C     3.0696909601     1.7059752799     0.8196602365
C     1.4559221374     2.615290469     2.1767840524
C     -0.4559518732     1.2117772356     2.7717975028
C     0.093750193     2.5088045254     2.4739717849
C     -2.4027627856     -0.2450011476     2.1216193445
C     -1.8542379602     1.041962583     2.492771121
C     -3.4829095751     -0.8642711926     -0.0027396824
C     -3.2262171946     -0.3596273192     -1.3637637049
C     -3.3919070478     0.0052049096     1.0490392528
C     -1.589328814     1.1610152153     -2.4177727215
C     -2.776917364     0.973528592     -1.5882142714
C     0.4334515204     2.515688812     -2.6009643081
C     -0.9280106643     2.4291848007     -2.3278711664
C     2.2843544463     2.8869676761     -1.2322233884
C     2.5878890662     2.92233006     0.1611731626
C     1.6536498812     3.5247834714     1.0300961682
C     1.0707173278     3.458022027     -1.6681596646
C     -0.5946269467     3.4501995459     1.5607483178
C     -1.1985030935     3.378416271     -1.2242065782
C     0.3846957982     3.9820665947     0.6067413853
C     0.0784164963     3.9495566271     -0.780810042
C     -2.5284262522     2.0342794727     1.7350623582
C     -3.3694939765     1.3997989469     0.7635138817
C     -3.0263682744     1.9064778912     -0.5171399793
C     -1.8643516718     3.147530824     1.1318738188
C     -2.1755584577     3.0734631268     -0.3093730283


