60

 C     2.3138491021     -3.4219843196     -0.6655233299
C     1.3035959361     -3.5009760971     -1.5829477213
C     0.0771435289     -4.0024328462     -0.9398339825
C     1.6938469267     -3.8195835462     0.6480965721
C     0.2773217689     -4.0289587848     0.4707212426
C     2.1294625212     -2.9340760737     1.5793366172
C     3.0442210588     -2.187068433     -0.4791648549
C     3.095843095     -2.0094188366     0.9417069849
C     2.8011306052     -1.046488265     -1.315067195
C     0.9558853253     -2.3730945487     -2.4127785371
C     1.7537059798     -1.1859642502     -2.3404652284
C     -1.0024784867     -3.3128290324     -1.5301801508
C     -0.4781423685     -2.2857518811     -2.441028386
C     -2.0937176148     -3.0071693446     -0.7463072994
C     -0.6698140916     -3.3526891999     1.322725572
C     -1.9643456613     -3.1453202751     0.7262444281
C     1.2221298456     -2.1383020319     2.38167302
C     -0.2058462681     -2.3181896372     2.2679441804
C     2.9195110787     -0.7687003889     1.4983146493
C     1.7657328432     -0.8412893531     2.4439176747
C     3.0086095342     0.2839972102     -0.738890712
C     3.0986746724     0.3869219294     0.6991296505
C     2.5511077576     1.4954586724     -1.4447421807
C     1.0922482381     -0.0168527936     -2.7717612783
C     1.5715561266     1.3146643391     -2.4541844368
C     -1.1601149728     -1.0407487992     -2.5762112244
C     -0.3234958634     0.0494489162     -2.913009312
C     -2.9135778435     -1.8508490513     -1.0324682018
C     -2.4210548542     -0.7845957443     -1.8648121182
C     -2.8577939967     -2.2547040926     1.293183726
C     -3.5681697142     -1.5505266447     0.1960264358
C     -1.0503630745     -1.1608666792     2.5835150085
C     -2.4339936666     -1.2524266558     2.2261787177
C     0.9787872622     0.3185024001     2.6712532573
C     -0.4677782259     0.19530548     2.7313908508
C     2.717714147     1.5885996828     1.3614454162
C     1.5819264909     1.5454472551     2.326748124
C     2.5364544398     2.7751235406     -0.7533983311
C     2.6875030989     2.7918670435     0.701482713
C     1.5712162902     3.7570957764     -1.0685565754
C     0.471159674     2.2326656449     -2.6216431242
C     -0.7258258368     1.4313768036     -2.7147266503
C     0.4657600679     3.4533089587     -1.9218366697
C     -2.7404055331     0.6031608439     -1.4973993913
C     -1.8927211696     1.7213830052     -1.9717404085
C     -3.791710392     -0.2574746272     0.5751835532
C     -3.1534282421     -0.0584279904     1.9041662301
C     -3.4350689907     0.8241535369     -0.2662208652
C     -1.229426292     1.3926491917     2.408573564
C     -2.5664678799     1.1889013757     1.9080196705
C     -2.9535273944     1.8558547448     0.6460277216
C     0.8436500068     2.7573172848     2.1574919647
C     1.6148789837     3.5985143627     1.2676931498
C     0.9968118184     4.2547170868     0.2141490231
C     -0.5824714937     2.661320885     2.0492201812
C     -0.7538904582     3.8224689472     -1.2641040549
C     -1.8516029674     2.9596710708     -1.2121509681
C     -2.2503908877     2.9133514751     0.1990516056
C     -0.4037645282     4.2329910412     0.1184577736
C     -1.2000494555     3.5015213188     1.0220838093


