60

 C     -1.0744831952     -4.1266866204     -1.0704304963
C     -2.1966841811     -3.2483360739     -1.2062820342
C     -1.863675956     -2.1983832781     -2.1051771326
C     0.0150791476     -3.6067841347     -1.7780005206
C     -0.4290360341     -2.3610370748     -2.3879843427
C     1.1677656205     -3.5782471872     -0.8978654105
C     -0.6972882411     -4.1784615178     0.3308450713
C     0.7104304931     -4.0012530567     0.4281675526
C     -2.6152696105     -2.884920885     0.1198159314
C     -1.5743015801     -3.3304773013     1.0652573913
C     -3.1829901896     -1.6547173463     0.2897510571
C     -2.4013127726     -0.9060236319     -1.9235132514
C     -3.3101729218     -0.741384067     -0.8225471927
C     -1.6042571126     0.2560615147     -2.3340929518
C     0.4249722459     -1.2463400085     -2.4684341188
C     -0.1580157582     0.1037583882     -2.5745474324
C     2.1193188166     -2.5523400487     -1.0375007357
C     1.8071449149     -1.428007855     -1.9683588974
C     2.9170279444     -2.2525247521     0.1244079542
C     1.2062897878     -3.3086949081     1.543470833
C     2.4476281198     -2.6440341699     1.4039847935
C     -1.0411402756     -2.3648481972     2.0072025611
C     0.3329879646     -2.4475369829     2.3134376966
C     -2.8924326587     -0.8192603636     1.4618747146
C     -1.6982483935     -1.0534331715     2.1808725014
C     -3.5688463083     0.5517792061     -0.2834017843
C     -3.3489855804     0.4997794139     1.1610312283
C     -2.1023247502     1.525380555     -1.9846935916
C     -3.1725801626     1.6784908514     -1.0031330822
C     -1.2295762633     2.6966325469     -1.8865947725
C     0.7094716454     1.2615726436     -2.5085444517
C     0.1801742409     2.5803188549     -2.1109524349
C     2.6071493238     -0.301045168     -1.9220510325
C     2.1145412142     1.0158398194     -2.3034860551
C     3.5439594459     -0.9556875565     0.2634016067
C     3.5829821385     -0.1041914557     -0.8274523468
C     2.4383328834     -1.4426949633     2.2062306454
C     1.1186962722     -1.241254062     2.6625204334
C     3.150101195     -0.4099449485     1.5540017475
C     -0.9077673804     0.1365322942     2.5825346917
C     0.5589243706     0.0630075108     2.6528602357
C     -2.7653490366     1.5971067553     1.7979081799
C     -1.4903292812     1.4070014709     2.4432587918
C     -2.8917011014     2.8757577222     -0.2784091075
C     -1.7457048805     3.5578322214     -0.8962725108
C     -2.7115665184     2.8486715469     1.1026286234
C     -0.6574081186     2.5893902541     2.1501411534
C     -0.8825162611     4.0164919075     0.1463442334
C     -1.4201570457     3.479539947     1.3790239882
C     1.0012724357     3.4608801488     -1.3244512855
C     0.4761014447     3.9482500418     -0.0561146424
C     2.9128493432     1.9792314502     -1.6287591758
C     3.6713027219     1.2721291017     -0.5865508085
C     2.3634355527     3.13193835     -1.0910693123
C     2.7322974097     0.9435465874     1.6817182411
C     1.4128118304     1.209595131     2.2624692447
C     0.7654547492     2.4749935404     1.9548811674
C     1.3446383133     3.373355162     0.982392716
C     3.2504370097     1.8259230764     0.6638023991
C     2.5505430734     3.0277627727     0.3504334259


