60

 C     0.7834708405     4.4717645873     1.2210403354
C     0.7525034308     4.6929944862     -0.1723295423
C     -0.5728583019     4.3628341903     -0.6770910215
C     -0.4751255406     3.934229806     1.6048381867
C     -1.3516165576     3.8851443293     0.4211891044
C     -0.2551985755     2.7111318046     2.315017442
C     1.7910417885     3.4520244975     1.4920184258
C     1.2042897411     2.4394073053     2.2781679025
C     1.6733011307     3.8041004535     -0.7957569788
C     2.3841709052     3.0478619458     0.2456947222
C     -0.4052045736     3.5099013784     -1.817986486
C     1.011188101     3.0903155139     -1.8521861804
C     -1.3577206303     2.5486190264     -2.0594387845
C     -2.217001554     2.7695976387     0.2512314686
C     -2.3879421971     2.2902895736     -1.0843889369
C     -1.1567587199     1.629341215     2.2492994869
C     -2.2898880225     1.736905093     1.3168336044
C     -0.682564787     0.3025383359     2.6632458132
C     1.6394338206     1.1137391846     2.1657856254
C     0.7544803599     0.0779548231     2.6875540405
C     2.6828639525     1.701807657     0.0184218479
C     2.5658705547     0.753509945     1.1168714634
C     1.3395733736     1.7498654815     -2.131707106
C     2.4006781613     1.1423699486     -1.3214903682
C     -1.0106734764     1.253583792     -2.6417190401
C     0.330959271     0.8322232039     -2.7018446092
C     -2.8902272596     0.9739771835     -1.344265572
C     -2.051818093     0.3136382036     -2.3331022603
C     -3.0164774301     0.5749931237     1.0569622497
C     -3.43576819     0.2372261528     -0.3061511319
C     -1.5554832413     -0.8466454687     2.5218718925
C     -2.7418110237     -0.6825980391     1.7326208828
C     -0.9957874602     -2.172749539     2.5723451085
C     1.2597422139     -1.2317103984     2.6743585354
C     0.3817208161     -2.3307708564     2.7626595747
C     2.8683644855     -0.6427300607     0.8849825121
C     2.3530458017     -1.6139207656     1.7669094718
C     2.6786013331     -0.184663332     -1.5392936874
C     3.1585227466     -1.0600777483     -0.4711507094
C     0.5892155325     -0.6015214603     -2.7993233473
C     1.9100564592     -1.0149994105     -2.4731145611
C     -1.8284312207     -1.0878680841     -2.3064077571
C     -0.4995683544     -1.5816981127     -2.6594933078
C     -3.4232750846     -1.169804067     -0.4210174139
C     -3.1421373779     -1.737827064     0.8714629817
C     -2.6447502582     -1.8513856603     -1.3944476665
C     -1.3878047077     -3.2279022673     1.6066275031
C     -2.3804337257     -2.9296799135     0.6940112432
C     -2.1117532485     -3.0466221104     -0.7555360949
C     0.8926380736     -3.4114809533     1.9236442511
C     2.1071344591     -2.9840815242     1.3286268809
C     -0.1869645982     -3.9284057101     1.1663523656
C     2.9557471199     -2.3802053741     -0.8787562587
C     2.1991405862     -2.3518373911     -2.1491007403
C     2.3688829371     -3.36280952     -0.0221341329
C     -0.1662961718     -2.920838336     -2.2596052232
C     -0.9320663009     -3.589344232     -1.1953424935
C     0.0224138223     -4.1668213348     -0.2271375818
C     1.1823546304     -3.2951004539     -2.0571106893
C     1.3120004341     -3.9977905924     -0.762215339


