60

 C     0.0239618711     5.1587286812     0.
C     -1.3127032802     4.6588987948     0.
C     -1.5563389072     3.8198713513     -1.1319045832
C     0.655593378     4.5280631035     -1.1397603616
C     -0.3304371061     3.7080531948     -1.8645409637
C     1.8519212676     3.8878015851     -0.7403471803
C     0.655593378     4.5280631035     1.1397603616
C     1.8519212676     3.8878015851     0.7403471803
C     -1.5563389072     3.8198713513     1.1319045832
C     -0.3304371061     3.7080531948     1.8645409637
C     -2.2926509029     2.6185203296     -0.7195838553
C     -2.2926509029     2.6185203296     0.7195838553
C     -2.1087566994     1.4188056304     -1.3922186559
C     0.0083454825     2.4307384136     -2.358094771
C     -1.0687040277     1.4309414231     -2.4228166961
C     2.1334772227     2.5719988079     -1.1520121873
C     1.3405739084     1.8885071938     -2.1216669979
C     2.1334772227     2.5719988079     1.1520121873
C     2.5191558223     1.7616231436     0.
C     0.0083454825     2.4307384136     2.358094771
C     1.3405739084     1.8885071938     2.1216669979
C     -2.1087566994     1.4188056304     1.3922186559
C     -1.0687040277     1.4309414231     2.4228166961
C     -2.3758682406     0.1345971818     -0.7093911866
C     -2.3758682406     0.1345971818     0.7093911866
C     -2.1747416132     -1.1243570551     -1.4424384511
C     -0.7497500164     0.2242064545     -2.9659592821
C     -1.514763553     -0.991571367     -2.7015689161
C     1.572836296     0.4838980708     -2.2757690711
C     0.6488348712     -0.1775435462     -3.135953993
C     2.4913212163     0.3588484778     0.
C     2.2248671878     -0.3293402344     -1.2555344674
C     1.572836296     0.4838980708     2.2757690711
C     2.2248671878     -0.3293402344     1.2555344674
C     -0.7497500164     0.2242064545     2.9659592821
C     0.6488348712     -0.1775435462     3.135953993
C     -2.1747416132     -1.1243570551     1.4424384511
C     -1.514763553     -0.991571367     2.7015689161
C     -2.118489784     -2.4179485929     -0.7418543319
C     -2.118489784     -2.4179485929     0.7418543319
C     -1.4830928255     -3.5250227144     -1.4331101151
C     -0.7164662546     -2.0484924957     -3.2047393794
C     0.6835420635     -1.5409849914     -3.2808653553
C     -0.7132507649     -3.2772604259     -2.6116247016
C     2.1111630802     -1.7776771227     -1.2799221463
C     1.4803256404     -2.3727735792     -2.4414604382
C     0.7240718347     -3.5946852258     -2.2974190754
C     2.1111630802     -1.7776771227     1.2799221463
C     2.1160620617     -2.5375504961     0.
C     0.6835420635     -1.5409849914     3.2808653553
C     -0.7164662546     -2.0484924957     3.2047393794
C     1.4803256403     -2.3727735792     2.4414604382
C     -1.4830928255     -3.5250227144     1.4331101151
C     -0.7132507649     -3.2772604259     2.6116247016
C     0.7240718347     -3.5946852258     2.2974190754
C     -0.6696092252     -4.4553715598     -0.6734894086
C     0.7516009243     -4.2865334452     -1.135647395
C     1.533735838     -3.8534293671     0.
C     -0.6696092252     -4.4553715598     0.6734894086
C     0.7516009243     -4.2865334452     1.135647395


