60

 C     0.9827763788     -4.1141074827     0.3483221956
C     1.465158474     -3.833095006     -0.9179004857
C     0.3080228184     -3.6540764846     -1.7952814384
C     -0.4817720508     -4.1721578395     0.2917946252
C     -0.9078801247     -3.7985884139     -1.017857735
C     -0.9924811979     -3.5161306274     1.4279748809
C     1.3530627932     -3.3007852878     1.4805890335
C     0.1399378421     -2.8908010148     2.1533632145
C     2.3796049431     -2.3749811003     1.3263649594
C     2.3797519856     -2.7361916966     -1.1223805708
C     2.9404773753     -2.1193927863     -0.0029660264
C     0.5380378902     -2.4920982517     -2.5316356726
C     1.8314045313     -1.8895903568     -2.1726435643
C     -0.5386271322     -1.6204640004     -2.8044495229
C     -1.9686744508     -2.819035536     -1.1551649213
C     -1.8016231706     -1.7919847992     -2.142776186
C     -2.2010613174     -2.8145938903     1.3177157638
C     -2.6864060717     -2.4246397288     0.0140683184
C     -2.4045412853     -1.7062073277     2.1885411279
C     0.0143905595     -1.581875612     2.7138950972
C     -1.3214361725     -1.0473071503     2.7839178099
C     2.3187841236     -1.1009754311     2.0073828422
C     1.1378544723     -0.637687048     2.6426855582
C     3.2868408497     -0.7298596828     -0.0748603683
C     3.1256678353     -0.1782301164     1.251356602
C     2.0213827483     -0.4905749374     -2.191743743
C     2.9335510764     0.0810042972     -1.201369151
C     -0.2947206486     -0.2320233161     -3.022447322
C     0.9462416085     0.3807194993     -2.7253296479
C     -2.4095212944     -0.4764327952     -2.0264310298
C     -1.5489610816     0.4432276671     -2.7164836724
C     -3.2664243697     -1.0688055451     0.1450075364
C     -3.1671637899     -0.6979609217     1.4875276319
C     -3.0975761464     -0.0521478932     -0.8626097528
C     -1.5587209491     0.406149515     2.6908355991
C     -2.7119629334     0.6015107321     1.864114655
C     0.8949747652     0.8322451812     2.6950792085
C     -0.5016862234     1.3339416778     2.6952526777
C     2.9898622326     1.1777837459     1.4282109279
C     1.8903980451     1.708549348     2.217465266
C     2.9318840103     1.4937558166     -0.9931361281
C     3.1502484453     2.0162274186     0.2920614508
C     0.9430009745     1.8298577613     -2.4489985429
C     1.9681172823     2.3907209374     -1.659400607
C     -1.5892599142     1.7762482417     -2.4414039753
C     -0.3350469253     2.5506536522     -2.4564994739
C     -3.0180506237     1.3657879257     -0.4628182836
C     -2.7947121949     1.6846254247     0.9585453942
C     -2.4510529022     2.2793373341     -1.4010837515
C     -0.8177163198     2.619647121     2.1485147555
C     -1.9835126116     2.8042560391     1.3199367041
C     1.5661939184     3.0292096902     1.6505902657
C     2.3238244772     3.1932236022     0.4661448796
C     1.7093835461     3.5285038123     -0.7770944907
C     0.2367714545     3.5044706591     1.6525349264
C     -0.5448214611     3.6892458763     -1.6861659517
C     -1.8522074394     3.5130141056     -0.9881511383
C     -1.6456760075     3.7951384944     0.3410375021
C     0.4317008417     4.1249261637     -0.7337430649
C     -0.2460113885     4.20882014     0.531994609


