60

 C     0.7552169292     4.3832365829     1.3699503895
C     1.0956458618     4.4571848284     -0.0538642008
C     -0.0974531297     4.4142690357     -0.7750064284
C     -0.674154008     4.1244318166     1.4853000068
C     -1.2033113124     4.2109084986     0.1998774845
C     -0.8654397499     2.8624102124     2.2022682839
C     1.4035545099     3.2592658199     1.862005759
C     0.4425199034     2.3491347742     2.4875119449
C     2.1084433563     3.4609485309     -0.3475722125
C     2.3471481703     2.7163977746     0.8855352558
C     2.0082976228     2.7043376893     -1.5187545667
C     -0.3026545185     3.4707002514     -1.8330228211
C     0.7729037058     2.705905481     -2.2968801067
C     -2.0521287492     3.1920375477     -0.3008018958
C     -1.5492502675     2.7603312723     -1.5862420343
C     -1.8775180509     1.937711108     1.8456071441
C     -2.5854280385     2.2017300877     0.5835110036
C     -1.7018655266     0.5439652973     2.2668815949
C     0.7138083782     0.9763645334     2.5316182629
C     -0.3962959714     0.041570805     2.6290194827
C     2.6245952986     1.3512673728     0.8934535322
C     1.9762175642     0.5280673592     1.9364335963
C     2.5366804203     1.3632165513     -1.5466061567
C     2.9323546559     0.6761519758     -0.3742681106
C     0.5655970104     1.3549552417     -2.7833049787
C     1.7746804336     0.6177926183     -2.5194509542
C     -1.7681338518     1.4188151837     -2.061726968
C     -0.6787529976     0.6751689052     -2.7116279605
C     -3.1811167759     1.1100210249     -0.0648050315
C     -2.7743792808     0.698564619     -1.3916156679
C     -2.6466935035     -0.4167999632     1.7792184147
C     -3.4223774222     -0.0754756537     0.66042596
C     -2.3418534922     -1.847462083     1.6890547661
C     -0.1111005299     -1.3958188153     2.6134611225
C     -1.1348481096     -2.3816396536     2.1775693049
C     2.2053915699     -0.8260589647     1.9306708114
C     1.245951028     -1.7673504384     2.4649153158
C     3.0256438073     -0.7769017809     -0.4160118613
C     2.9314528263     -1.4885176742     0.8294077752
C     1.7706971591     -0.7547357173     -2.5158331122
C     2.5703471119     -1.4879796835     -1.5649189505
C     -0.6882260067     -0.8015607523     -2.7024660792
C     0.557516438     -1.4861759181     -2.7584773551
C     -2.8493969061     -0.7621079308     -1.4579035062
C     -3.4142412434     -1.2107374303     -0.247239796
C     -2.9026860614     -2.3307622679     0.4284282848
C     -1.8152779076     -1.5311925979     -2.1028245301
C     -2.1897177225     -3.2687471483     -0.3253864437
C     -1.6138114884     -2.8588198718     -1.614515672
C     -0.7137021129     -3.659040354     1.6067929976
C     -1.2549759022     -4.0635370522     0.3567061632
C     1.6140325846     -3.0562037195     1.9272433575
C     2.6117397364     -2.8399483544     0.8606631531
C     0.6946433479     -3.9885595031     1.535300135
C     2.0371730721     -2.832268992     -1.4916818771
C     0.75869686     -2.8154377254     -2.2199453498
C     -0.3314902355     -3.5369924558     -1.7359492641
C     -0.1420393216     -4.3595435525     -0.5623232819
C     2.1565748555     -3.5656627669     -0.2992408165
C     1.0427960766     -4.3808239782     0.1414366871


