60

 C     -0.5624560913     -4.3921894226     -0.3804203213
C     0.3749168818     -4.031234433     -1.3214192051
C     -0.2433591749     -3.1036791136     -2.300240771
C     -1.8307325685     -3.7493348116     -0.76714383
C     -1.5721805875     -2.8466373659     -1.902541348
C     -2.4222755313     -3.2734236469     0.3792568489
C     -0.3186559389     -4.092890116     1.0315357109
C     -1.4960727992     -3.4552626894     1.5219682521
C     0.9148279436     -3.5400756485     1.4057552059
C     1.6630850628     -3.5116263234     -0.9650611566
C     1.9701074123     -3.3469190287     0.4043556043
C     0.6585346117     -2.0618756239     -2.5500839784
C     1.9136965006     -2.3988799754     -1.8634408825
C     0.211919847     -0.696222552     -2.6433289659
C     -2.0390213141     -1.5069875001     -1.8772074616
C     -1.1861314781     -0.4142303922     -2.3962508429
C     -2.9583630043     -1.9683406315     0.4205940521
C     -2.947449905     -1.168768855     -0.7771696816
C     -1.4588129444     -2.2279925219     2.200192979
C     -2.4852967452     -1.3541005931     1.6365928004
C     0.951113858     -2.3701149559     2.2731016992
C     -0.2220021918     -1.6197713305     2.6018620301
C     2.7796558868     -2.2252293638     0.80992029
C     2.1864302298     -1.6656323285     2.0140551332
C     2.7424237489     -1.3727208282     -1.4873527666
C     3.2938895954     -1.3309284072     -0.1369951026
C     1.2078244594     0.3650471019     -2.4546042569
C     2.4756250047     -0.0233432478     -1.9171144816
C     0.7930260223     1.7606893476     -2.3306183866
C     -1.6077467428     0.981548497     -2.2291062316
C     -0.6421463083     2.0966627301     -2.3169973196
C     -3.2312239863     0.1638065452     -0.56975719
C     -2.8079464853     1.1958586535     -1.4793848737
C     -2.4486123518     0.0398984037     1.7772051119
C     -3.2166131842     0.7290171406     0.7821529685
C     -0.1536941073     -0.1441241331     2.7306276027
C     -1.2957343419     0.7182665321     2.3719388902
C     2.2864548116     -0.3189074444     2.2866697284
C     1.1246741266     0.4509672023     2.7128711077
C     3.4992904091     0.0492432925     0.1958962511
C     3.1590618809     0.8367873851     -0.9849363377
C     3.0908959336     0.5427755627     1.446400216
C     1.7255931922     2.6696258042     -1.714208719
C     2.7836552033     2.1476095716     -0.8753360348
C     1.2548973297     3.8431300966     -1.0518121842
C     -1.0276059155     3.3866074813     -1.7706536366
C     -0.05796094     4.2006815099     -1.0927640056
C     -3.0269446469     2.4224149058     -0.788200994
C     -3.1182971298     2.0971781008     0.6657461782
C     -2.2037614631     3.4862155946     -0.9439509832
C     -1.1140177975     2.1473461661     2.1191942731
C     -0.4972166182     4.3541201709     0.3348663871
C     -2.1412690159     2.846632106     1.3574634086
C     -1.7712421834     3.9094708635     0.4341456594
C     1.3303100373     1.8226416919     2.3242551076
C     2.5653585074     1.8728178198     1.5559551027
C     2.6454301453     2.7509941911     0.4625896831
C     1.7018379499     3.7733194428     0.3663487976
C     0.2524242373     2.7158314723     2.0736070848
C     0.5478825634     3.8342380005     1.1909779843


