60

 C     1.2357199532     -3.8509211615     -1.0453186216
C     2.3246824298     -3.3676334314     -0.362718232
C     2.9118592063     -2.2507026057     -1.1222422186
C     1.0329105701     -2.9517733705     -2.2022425537
C     2.0419286088     -1.9168937215     -2.1879437863
C     -0.3000841493     -2.6146636248     -2.2323998508
C     -0.0200644268     -4.0359414829     -0.3745104305
C     -1.0221436142     -3.3857650404     -1.1720620724
C     -0.0713049883     -3.87461684     1.042091517
C     2.212891469     -2.9356121311     1.0164855331
C     1.0401464785     -3.1923364211     1.7108392548
C     3.300612358     -1.2568973351     -0.2104187996
C     2.8210541766     -1.627680852     1.1107537354
C     3.339873914     0.0937519568     -0.6292606384
C     1.7006583585     -0.5356324086     -2.4213166261
C     2.5816916928     0.4662751581     -1.8267472111
C     -0.6963469771     -1.2582998404     -2.5801064973
C     0.3194799898     -0.1923350953     -2.6956620703
C     -2.0177447375     -0.9307711752     -2.2773313691
C     -2.1976308529     -2.8502076772     -0.6112100547
C     -2.7983555222     -1.7510832727     -1.3172680253
C     -1.2670882772     -3.3612115925     1.6004791752
C     -2.3413791148     -2.8804573012     0.8342111058
C     0.4601693016     -2.1291321885     2.5630659422
C     -0.9284342372     -2.3313463465     2.5841182865
C     2.2809593625     -0.6011513761     1.9463594828
C     0.9708345606     -0.8005351076     2.5929454234
C     3.4110804665     1.0228245475     0.4427833841
C     2.7214961529     0.6985967692     1.6670468381
C     3.190197375     2.3987238368     0.2035097123
C     2.2107141751     1.827558739     -1.9580747984
C     2.6705220149     2.8066230368     -1.0096766325
C     -0.1160087751     1.2038038666     -2.5837755175
C     0.8641949506     2.188078035     -2.3171357741
C     -2.4604234612     0.4428783986     -2.1758319326
C     -1.5297862688     1.5284418348     -2.2737274201
C     -3.6249081271     -0.8613296861     -0.6407012384
C     -3.492217206     0.4578073366     -1.2078841615
C     -2.8435204705     -1.6749123925     1.5112476811
C     -1.8393003993     -1.2677270421     2.4948281182
C     -3.5154593395     -0.7142539556     0.7999516109
C     0.0425788333     0.327659338     2.6964776236
C     -1.3902343707     0.0802127694     2.5821567898
C     1.9399107021     1.8754566624     2.0601400356
C     2.349899425     2.9635751355     1.2746618306
C     0.5489457635     1.6937577201     2.4529810747
C     1.5862185006     3.7603791375     -0.7464118483
C     0.5187567442     3.4381093546     -1.5956619369
C     1.3900738323     3.842033283     0.686387788
C     -1.8416124057     2.7064138929     -1.5243373477
C     -0.7974203114     3.6300815545     -1.1300625179
C     -3.4585459221     1.4169810085     -0.1682125052
C     -3.2942583255     0.6932682073     1.0884657696
C     -2.2619414502     1.105621116     1.9888506552
C     -2.7692505965     2.6019977688     -0.4003876311
C     -0.3403325647     2.7350308167     2.0954774462
C     0.078270939     3.8092167953     1.1829306742
C     -0.9804033234     3.9471287472     0.2473412623
C     -1.7453510325     2.4252173504     1.814727335
C     -2.1367811573     3.2143206025     0.7093250343


