60

 C     -1.4975632496     -3.8363198715     -1.3154607775
C     -0.4976423143     -4.1353997616     -0.3971442039
C     -0.9019479591     -3.6509288922     0.9293759009
C     -2.5586926988     -3.1413544196     -0.6700661861
C     -2.2201092065     -3.0847747799     0.7467996397
C     -2.7244209876     -1.9004647529     -1.3365239586
C     -0.9086181785     -2.9448809088     -2.327377831
C     -1.6879549039     -1.7721380004     -2.3823969088
C     0.7734061377     -3.7116576332     -0.9564344884
C     0.4905560351     -2.8650362832     -2.1576029841
C     1.74516056     -3.33396397     -0.0923208823
C     0.0597249064     -3.0213376302     1.7687466571
C     1.4382228203     -3.1258902619     1.3428888183
C     -0.3134098638     -1.8287440312     2.5554974831
C     -2.5553650529     -1.9426173645     1.4548691754
C     -1.6560318064     -1.3773687682     2.4304379787
C     -3.1437054021     -0.7289057869     -0.6346096732
C     -3.2177011164     -0.829845304     0.7839609984
C     -2.9019184369     0.569305851     -1.2479422743
C     -1.0763717193     -0.5216088374     -2.6259950157
C     -1.8612166499     0.6717733426     -2.2925948407
C     1.1621698513     -1.6315749208     -2.3449035046
C     0.3754599357     -0.4591213469     -2.7208938915
C     2.730779029     -2.3302217849     -0.504177847
C     2.4455159412     -1.4447703887     -1.6211477528
C     2.3664325979     -2.188851249     1.7692278865
C     3.2684061815     -1.8044764761     0.6707517172
C     0.6973281927     -0.8047954903     2.8964079065
C     2.0480329499     -1.0057997327     2.4939143928
C     0.305084196     0.5622584061     3.0452067466
C     -2.0137185445     0.0226761626     2.5883410844
C     -3.0285981511     0.3430185069     1.5872418437
C     -1.0704396963     0.9672542971     2.9312351503
C     -3.1588289859     1.7158441599     -0.438956668
C     -3.0750269393     1.5893670306     1.0089230197
C     -2.5743738301     2.9718550675     -0.7603926392
C     -1.2511242551     1.9212867885     -2.5186138756
C     -1.6817792871     3.0834370958     -1.8039644007
C     1.0093958861     0.8583339465     -2.6880910868
C     0.197790053     2.0117102318     -2.6460087199
C     3.0250469858     -0.1714627793     -1.5580536799
C     2.3565678935     0.9884789524     -2.1777659104
C     3.6090564335     -0.4456885781     0.8156133511
C     2.8565672307     0.0813611371     1.956201545
C     3.6781659282     0.3140552262     -0.3545824648
C     1.1007301322     1.6450116755     2.5450001731
C     2.3613632336     1.4179058246     1.9291053264
C     -1.1238082192     2.3115755049     2.3697543191
C     -2.1816129793     2.6691237643     1.493514622
C     -1.9330587524     3.549082753     0.4398675333
C     0.2083751288     2.7173343563     2.0882986073
C     -0.4960320975     3.8018178955     -1.3278329346
C     0.6310434691     3.2228324822     -1.9116321308
C     -0.5986365405     3.9550507322     0.0974610607
C     0.5170952478     3.5214007022     0.9224160152
C     2.7512528554     2.1506090496     -1.4944357592
C     3.3997039341     1.708145472     -0.2713244904
C     2.7203169264     2.2743958039     0.8146187528
C     1.8242944163     3.1701088966     -1.1700683811
C     1.7566628351     3.2535889892     0.2736379564


