60

 C     -3.6180382402     -0.5424417649     2.4406517059
C     -3.713947868     0.8070412347     1.8565894653
C     -4.1940618166     0.6847490051     0.5290726945
C     -3.7379235353     -1.4781148408     1.3382272666
C     -4.2169008409     -0.7818898222     0.1978999757
C     -2.5222205979     -2.2347095439     1.2660640089
C     -2.3960902444     -0.6887937578     3.0424406545
C     -1.6986001713     -1.8068823337     2.3868852681
C     -2.5159236576     1.5113912388     2.1406654738
C     -1.7194474216     0.6145996532     2.9903220802
C     -1.8311143756     2.2470884848     1.1033670099
C     -3.6931115329     1.5837132159     -0.4278020656
C     -2.4924813634     2.3556710551     -0.1415982182
C     -3.5884696599     1.1422190379     -1.7873046034
C     -3.7605009423     -1.1956082586     -1.0633736382
C     -3.6468637992     -0.2098949197     -2.1176835638
C     -1.8808197228     -2.4659491493     0.0081809759
C     -2.5849510242     -2.0355770597     -1.1547720519
C     -0.4121308591     -2.5774410513     -0.0447208266
C     -0.3260631497     -1.7681882198     2.2895332909
C     0.3670114861     -2.3634263055     1.1395978073
C     -0.3594634616     0.6503204914     2.9745593437
C     0.3594634616     -0.6503204914     2.9745593437
C     -0.3670114861     2.3634263055     1.1395978073
C     0.3260631497     1.7681882198     2.2895332909
C     0.4121308591     2.5774410513     -0.0447208266
C     -1.6913505018     2.4152016032     -1.3616485391
C     -2.3794348743     1.7198923824     -2.3824165284
C     -0.2724580334     2.4200846169     -1.3385332261
C     -2.4800992485     -0.5090006431     -2.923076976
C     -1.8265682523     -1.5887120643     -2.324709686
C     -1.7063346821     0.7190116422     -3.122838416
C     0.2724580334     -2.4200846169     -1.3385332261
C     -0.4074928389     -1.7079172787     -2.3935877607
C     1.6913505018     -2.4152016032     -1.3616485391
C     1.8311143756     -2.2470884848     1.1033670099
C     2.4924813634     -2.3556710551     -0.1415982182
C     1.7194474216     -0.6145996532     2.9903220802
C     2.5159236576     -1.5113912388     2.1406654738
C     1.6986001713     1.8068823337     2.3868852681
C     2.3960902444     0.6887937578     3.0424406545
C     1.8808197228     2.4659491493     0.0081809759
C     2.5222205979     2.2347095439     1.2660640089
C     2.5849510242     2.0355770597     -1.1547720519
C     0.4074928389     1.7079172787     -2.3935877607
C     -0.3150745034     0.6681553346     -3.1199907211
C     0.3150745034     -0.6681553346     -3.1199907211
C     1.8265682523     1.5887120643     -2.324709686
C     2.3794348743     -1.7198923824     -2.3824165284
C     1.7063346821     -0.7190116422     -3.122838416
C     2.4800992485     0.5090006431     -2.923076976
C     3.6931115329     -1.5837132159     -0.4278020656
C     3.7605009423     1.1956082586     -1.0633736382
C     3.5884696599     -1.1422190379     -1.7873046034
C     3.6468637992     0.2098949197     -2.1176835638
C     3.713947868     -0.8070412347     1.8565894653
C     3.6180382402     0.5424417649     2.4406517059
C     3.7379235353     1.4781148408     1.3382272666
C     4.1940618166     -0.6847490051     0.5290726945
C     4.2169008409     0.7818898222     0.1978999757


