60

 C     -0.0929017085     4.0968467712     -0.6907347622
C     -0.0929017085     4.0968467712     0.6907347622
C     -1.4018957197     3.6070655733     1.1390384724
C     -1.4018957197     3.6070655733     -1.1390384724
C     -2.209912668     3.2697094672     0.
C     -1.1632303107     2.6489636945     -2.133998252
C     0.9387609631     3.3984452329     -1.4213498072
C     0.284321561     2.4661433921     -2.3216327341
C     2.0748155329     2.9853992854     -0.7319261684
C     0.9387609631     3.3984452329     1.4213498072
C     2.0748155329     2.9853992854     0.7319261684
C     -1.1632303107     2.6489636945     2.133998252
C     0.284321561     2.4661433921     2.3216327341
C     -2.0070509637     1.5380177367     2.2259776831
C     -2.9655337277     2.0394998178     0.
C     -2.9810347848     1.2646657835     1.2072814876
C     -2.0070509637     1.5380177367     -2.2259776831
C     -2.9810347848     1.2646657835     -1.2072814876
C     -1.4980042104     0.285973542     -2.7120986489
C     0.826546802     1.1858897945     -2.5888759609
C     -0.1062232992     0.0560179267     -2.8328137366
C     2.7712468955     1.8027614749     -1.1569692059
C     2.1855145076     0.9114520958     -2.1095511042
C     2.7712468955     1.8027614749     1.1569692059
C     3.4638713962     1.2576592873     0.
C     0.826546802     1.1858897945     2.5888759609
C     2.1855145076     0.9114520958     2.1095511042
C     -1.4980042104     0.285973542     2.7120986489
C     -0.1062232992     0.0560179267     2.8328137366
C     -3.2261704584     -0.167007465     1.2094921333
C     -2.3992355478     -0.7410087266     2.2294044049
C     -3.2261704584     -0.167007465     -1.2094921333
C     -2.3992355478     -0.7410087266     -2.2294044049
C     -3.4765101299     -0.9059215052     0.
C     -1.9828833079     -2.0710307868     -2.1355748852
C     0.3688261734     -1.3326736907     -2.6572125964
C     -0.5524980236     -2.3738317095     -2.3226616904
C     2.6481520033     -0.4513800694     -2.0711113022
C     1.710629643     -1.5701893843     -2.2919661142
C     3.8985657568     -0.0524327704     0.
C     3.6166284149     -0.8655233622     -1.153787357
C     2.6481520033     -0.4513800694     2.0711113022
C     3.6166284149     -0.8655233622     1.153787357
C     0.3688261734     -1.3326736907     2.6572125964
C     1.710629643     -1.5701893843     2.2919661142
C     -1.9828833079     -2.0710307868     2.1355748852
C     -0.5524980236     -2.3738317095     2.3226616904
C     -3.1675350668     -2.3119335075     0.
C     -2.5143833098     -2.8956976675     -1.1408754101
C     -2.5143833098     -2.8956976675     1.1408754101
C     -0.2047020766     -3.4191924857     -1.4073113597
C     -0.2047020766     -3.4191924857     1.4073113597
C     -1.4117656713     -3.757080173     -0.6856546532
C     -1.4117656713     -3.757080173     0.6856546532
C     2.063267972     -2.6427091015     -1.4036625544
C     3.226497118     -2.2030962232     -0.6891675229
C     3.226497118     -2.2030962232     0.6891675229
C     2.063267972     -2.6427091015     1.4036625544
C     1.0552990757     -3.405511754     -0.7424706429
C     1.0552990757     -3.405511754     0.7424706429


