60

 C     0.4957402477     4.6594800551     0.
C     1.1292499745     4.0647154163     -1.165673426
C     2.2344596745     3.3206828382     -0.7386536292
C     1.1292499745     4.0647154163     1.165673426
C     2.2344596745     3.3206828382     0.7386536292
C     0.1528189196     3.3201917455     1.9301003064
C     -0.8085468946     4.1370825511     0.
C     -1.1106159436     3.4336832186     1.2253544555
C     0.1528189196     3.3201917455     -1.9301003064
C     -1.1106159436     3.4336832186     -1.2253544555
C     0.4973426721     2.074967014     -2.5688525607
C     2.5023080512     1.990409037     -1.177422528
C     1.724526317     1.3580607628     -2.182611343
C     2.5023080512     1.990409037     1.177422528
C     2.8492071024     1.221159445     0.
C     0.4973426721     2.074967014     2.5688525607
C     1.724526317     1.3580607628     2.182611343
C     -0.6074807533     1.3032971273     2.9623039301
C     -2.0489980975     2.370010745     1.2372776276
C     -1.8980490297     1.4977632397     2.359363053
C     -2.0489980975     2.370010745     -1.2372776276
C     -2.6175362264     1.8349065346     0.
C     -0.6074807533     1.3032971273     -2.9623039301
C     -1.8980490297     1.4977632397     -2.359363053
C     -0.474336838     -0.1210154028     -3.2874147672
C     1.7860523247     -0.0950668073     -2.2658577618
C     0.732742703     -0.8238650265     -2.9659963259
C     2.8350362821     -0.1657800175     0.
C     2.5577693242     -0.8279447781     -1.2711710544
C     1.7860523247     -0.0950668073     2.2658577618
C     2.5577693242     -0.8279447781     1.2711710544
C     -0.474336838     -0.1210154028     3.2874147672
C     0.732742703     -0.8238650265     2.9659963259
C     -2.514920854     0.2295502434     2.3691562618
C     -1.7287385482     -0.7378387174     3.1075513894
C     -3.084068197     0.4414571759     0.
C     -3.031453689     -0.3422453138     1.1926325105
C     -2.514920854     0.2295502434     -2.3691562618
C     -1.7287385482     -0.7378387174     -3.1075513894
C     -3.031453689     -0.3422453138     -1.1926325105
C     -1.8267703872     -1.976628477     -2.410870285
C     -2.5997729967     -1.7453732291     -1.1948570376
C     0.5882956975     -2.2387234363     -2.7476794594
C     -0.7251783751     -2.8021851757     -2.3471983006
C     2.5091670197     -2.2519090073     -1.247239341
C     1.5653501723     -2.9590373645     -2.0647581313
C     2.5091670197     -2.2519090073     1.247239341
C     2.6079982579     -2.9372580502     0.
C     0.5882956975     -2.2387234363     2.7476794594
C     1.5653501723     -2.9590373645     2.0647581313
C     -1.8267703872     -1.976628477     2.410870285
C     -2.5997729967     -1.7453732291     1.1948570376
C     -2.293244134     -2.4591906522     0.
C     -0.7251783751     -2.8021851757     2.3471983006
C     -0.5019232647     -3.6978542906     -1.2304648906
C     0.9061731854     -3.9497646865     -1.2057879109
C     1.6094954955     -4.0217495477     0.
C     0.9061731854     -3.9497646865     1.2057879109
C     -1.2301167544     -3.4978669504     0.
C     -0.5019232647     -3.6978542906     1.2304648906


