60

 C     -1.3953382628     -4.1647917551     0.6276189182
C     -0.1106808753     -4.2856109253     0.0348279457
C     0.8800775462     -3.7155195974     0.9139646998
C     -1.2795489454     -3.3753115606     1.7885609624
C     0.1309692256     -3.1036734399     2.0028881566
C     -2.1843668181     -2.2508403215     1.7147434768
C     -2.245649005     -3.4341004216     -0.2939897151
C     -2.8727102455     -2.370092309     0.4256503429
C     -0.197746322     -3.7591526015     -1.3087109859
C     -1.5340562328     -3.1432396522     -1.4849693673
C     0.8917285498     -3.1298337339     -1.8563123717
C     2.0225963203     -3.0592633794     0.3718981092
C     2.1067533725     -2.9373073847     -1.07028782
C     2.5611428147     -1.9779803932     1.1355831249
C     0.5231504475     -1.877937348     2.5695735899
C     1.8512880569     -1.4470440284     2.2579067447
C     -1.845172734     -0.9777748323     2.2322457041
C     -0.5084234602     -0.8354245103     2.846324347
C     -2.4874172972     0.2135382066     1.6571407978
C     -3.1745064476     -1.2200952036     -0.2607554313
C     -3.1834736776     0.0471812449     0.4244470527
C     -1.6682257162     -1.8500571856     -2.1192142219
C     -2.6664465759     -0.9919977078     -1.5938574437
C     0.7243866669     -1.9355466808     -2.712535892
C     -0.4969991667     -1.2090524181     -2.7486961061
C     2.7798686372     -1.8365100202     -1.6370614215
C     1.9590909582     -1.2526222157     -2.6614490367
C     3.2418590564     -0.8360420329     0.5173750647
C     3.3109962147     -0.7512825954     -0.8686319981
C     2.2360371963     -0.0677230104     2.4422642177
C     3.0284233832     0.3533883782     1.3171256315
C     -0.0655920526     0.4458742455     3.1501136088
C     1.3457239534     0.8107570343     3.0336093338
C     -1.9903002107     1.5609141296     1.9737320054
C     -0.8362330523     1.6533962146     2.8161091269
C     -2.2207761497     2.6498534947     1.0753879144
C     -3.1177294103     1.0561024377     -0.5810661568
C     -2.6249466657     0.4293368242     -1.7901978942
C     -2.7751823388     2.3707270011     -0.2562388974
C     -0.4350818424     0.2654050817     -2.896364213
C     -1.5963875732     1.0712776975     -2.5318982993
C     2.0278827282     0.1569203755     -2.5790987886
C     2.9249011927     0.5074955417     -1.4984040601
C     0.8670359486     0.9209876699     -2.841031216
C     2.8314060335     1.6370780952     0.7279804268
C     2.7302894467     1.6952403122     -0.7439160433
C     1.4133537172     2.1758093659     2.6631696959
C     0.0737265729     2.722133952     2.6469857111
C     2.0848693756     2.6040352469     1.4966872586
C     -1.2548945642     3.7145533554     0.8934840585
C     -0.0320759876     3.6687784658     1.5897169829
C     1.2401093576     3.6188367573     0.8574753944
C     -2.1633918072     3.1638923273     -1.2295573943
C     -1.458916177     2.5032731477     -2.3122336585
C     -1.2278441284     4.0337116539     -0.5190023445
C     0.9663322823     2.2838827652     -2.4047172794
C     1.8809137464     2.6691382575     -1.330816011
C     1.213078981     3.6919985835     -0.536390894
C     -0.1742138786     3.0899842119     -2.3410391615
C     -0.0236643614     4.0103254894     -1.1961467805


