60

 C     0.6475682716     -5.2492115978     0.4479602795
C     -0.0833289178     -4.7417667594     1.5031378573
C     -1.3911942355     -4.2421546733     1.0834474595
C     -0.1788558784     -5.0047706067     -0.7587626885
C     -1.4564670793     -4.388308063     -0.3550058929
C     0.6086915999     -4.2991034882     -1.658382846
C     1.8383462565     -4.4026065887     0.3509976387
C     1.868323824     -3.9108934705     -0.9486561184
C     0.6094306496     -3.6645692044     2.1910788813
C     1.7805211044     -3.3807677561     1.4294779082
C     -1.5976744993     -2.9863052089     1.6950619899
C     -0.3394720968     -2.6181866762     2.4020233813
C     -2.2582047495     -1.9427734895     0.9944514903
C     -1.9419563006     -3.2899400192     -1.0818396463
C     -2.5218887818     -2.1521651692     -0.3903271222
C     0.1446822549     -3.1313163741     -2.3501225922
C     -1.1811503756     -2.7123650162     -2.1972140669
C     2.1187966406     -2.5461920519     -1.2459743556
C     1.1659661899     -2.088871268     -2.2304667811
C     2.1024374043     -2.0153081535     1.1682908021
C     2.4285537848     -1.622908216     -0.199652266
C     0.0789554956     -1.288519573     2.4128727698
C     1.4061408605     -0.9802093112     1.9278597999
C     -2.0609319748     -0.5701724861     1.4432817731
C     -0.9191880016     -0.229900317     2.2244955009
C     -2.605648917     0.509236927     0.6503058376
C     -2.4337271643     -1.001167106     -1.2481856051
C     -1.4861788764     -1.3018319451     -2.2771997295
C     -2.6064441088     0.3096299145     -0.7835428241
C     0.8692676355     -0.7172965198     -2.3734489643
C     -0.5107623178     -0.2974448498     -2.529640727
C     2.4009635933     -0.2465613321     -0.5384968652
C     1.7425195465     0.2269386568     -1.7250858788
C     1.7431697985     0.3919477097     1.7153526286
C     2.4906491714     0.7100697354     0.5376405856
C     -0.5068610119     1.1485247965     2.3979568822
C     0.9204414645     1.4725804174     2.288590519
C     -2.4751369279     1.8166956583     1.1501669011
C     -1.4335339996     2.163035635     2.0966350558
C     -2.6034592406     2.9160889382     0.2698674025
C     -2.0786136863     1.3904887895     -1.5885721833
C     -0.8593359879     1.0970962624     -2.3136037651
C     -2.3087006787     2.7135532661     -1.1150702915
C     1.5168380827     1.6430193801     -1.9105106213
C     0.1950975037     2.0986016667     -2.3188893788
C     2.6914059946     2.0466833938     0.1856694238
C     2.3195428658     2.5207661915     -1.1169184286
C     1.2965506588     2.8066231609     2.071964842
C     2.3840949884     3.0915116358     1.1358656925
C     -1.0453703835     3.5573310802     1.8577896434
C     -1.8670178305     4.0624099937     0.7837581492
C     0.3224622278     3.903077574     1.9036420904
C     -1.4153404048     3.7570002028     -1.4671961295
C     -0.1559824864     3.4790362963     -2.0375811904
C     -1.2474438957     4.6970148145     -0.3149147937
C     2.0096955543     3.9306892454     -0.9558327633
C     2.1368869392     4.2865166136     0.4668719627
C     0.8598074935     4.8107470039     0.9039974548
C     0.7857532197     4.3839952521     -1.3986529616
C     0.0863097344     5.0826770791     -0.2607654257


