60

 C     -0.3995320965     -4.1008843001     1.6931493937
C     0.3158070868     -4.2363831431     0.4544378145
C     1.5522294759     -3.5402815133     0.5186924426
C     0.3118201646     -3.1698170374     2.4846036045
C     1.5291588882     -2.8227096172     1.8098229295
C     -0.5485166255     -2.0586144221     2.8006403928
C     -1.6446918776     -3.4839166011     1.3515954556
C     -1.8108207031     -2.2875906896     2.0980525736
C     -0.5693526962     -3.999435154     -0.6573574881
C     -1.8079806457     -3.4298849489     -0.0848014198
C     -0.0603548739     -3.4602844618     -1.8403928321
C     2.0415836089     -2.8701066849     -0.6539890967
C     1.2686803477     -2.8689027641     -1.8550144342
C     2.8573359664     -1.7356919941     -0.442579121
C     2.0942977714     -1.529799135     1.9307181047
C     3.0165021194     -1.1799664225     0.8944411924
C     -0.0376676685     -0.7452819007     2.9557218675
C     1.3505556329     -0.4341273757     2.5907959713
C     -0.9987534715     0.2897445445     2.8448659967
C     -2.5400555965     -1.1944481559     1.5610469818
C     -2.2761993416     0.0554772523     2.1774810128
C     -2.458715792     -2.3207270868     -0.693125885
C     -2.9458838111     -1.2181561874     0.1561329717
C     -0.9118607299     -2.615434471     -2.613444031
C     -2.0365546346     -2.0044433871     -2.0453217592
C     1.2145840834     -1.6590123594     -2.6862702926
C     -0.0980420218     -1.5456201843     -3.1663790072
C     2.9564207626     -0.6343685275     -1.3928565975
C     1.9433618249     -0.4651380929     -2.3925691535
C     3.4233222775     0.1457619435     0.7525220378
C     3.4274741735     0.481347127     -0.6866897775
C     1.7049433888     0.9441287257     2.3357416108
C     2.8074466826     1.1951639894     1.4297934571
C     -0.6429388959     1.663734357     2.707164414
C     0.7167744313     2.0340212993     2.4592766934
C     -2.6602450858     1.2873729052     1.588528639
C     -1.737422593     2.3328697364     2.0338801058
C     -3.1918242054     0.0446762437     -0.4492736487
C     -3.124522837     1.2836945695     0.2714340352
C     -2.0638341146     -0.615501955     -2.5281638871
C     -0.7878343057     -0.3101142994     -3.15121556
C     -2.6894038685     0.3424907639     -1.7823542888
C     1.3175130258     0.8539217299     -2.5569532191
C     -0.1096370083     0.9086584934     -2.8915946978
C     2.9275336079     1.7593373464     -0.8629799774
C     2.7742020678     2.3239401692     0.4917284747
C     1.8950746905     2.0092224398     -1.8606525827
C     0.9174124992     3.2814438899     1.7663587053
C     1.934636567     3.3674772651     0.6879192434
C     -1.5144504063     3.4567725855     1.2629889367
C     -0.1884662482     4.0170867562     1.2714482172
C     -2.6620380317     2.350572229     -0.6282692582
C     -2.218169049     1.7101927616     -1.8317211889
C     -0.9333358165     2.0244461252     -2.4088096276
C     -1.9846468613     3.4653119246     -0.1410590835
C     1.1346824264     3.1883937286     -1.6559816742
C     1.3485447403     4.0105687588     -0.478058241
C     0.1030335363     4.4935000888     -0.0665330768
C     -0.3027688436     3.2028114917     -1.9393324839
C     -0.928411291     4.012501631     -0.9372399848


