60

 C     0.9662322307     -4.7988622457     -0.7569711647
C     2.0333211345     -3.9438548218     -0.4047091669
C     1.9972609677     -3.6599760687     1.0012003912
C     0.0879410133     -4.833099699     0.4201786658
C     0.7025856208     -4.1529128482     1.501834922
C     -1.214407469     -4.4176218287     0.045053314
C     0.2184443327     -4.0879430504     -1.7706577833
C     -1.1294776505     -3.9826791238     -1.3637286768
C     2.0646832336     -2.794912725     -1.3009501441
C     0.8746907586     -2.8573800734     -2.1420930903
C     2.5036171841     -1.5532793084     -0.8502156332
C     2.184348323     -2.355890789     1.4502746355
C     2.6644758149     -1.3355376015     0.5827057195
C     0.0621107718     -3.0634428836     2.1575094861
C     1.0372435855     -1.9770178531     2.2719427729
C     -1.9102452636     -3.4083808394     0.7481346366
C     -1.2895368451     -2.6778221709     1.8396865754
C     -1.8699372566     -2.795787075     -1.5411077609
C     -2.5424185881     -2.5802669415     -0.2760698832
C     0.1372453547     -1.6516480242     -2.4261093739
C     -1.2999048036     -1.638525355     -2.1754250782
C     2.1257108577     -0.3971881838     -1.6516976744
C     0.8484063659     -0.3893136413     -2.3578856122
C     2.6830175335     0.8045669464     -1.2614684818
C     2.6173334663     -0.0038591165     1.0702466149
C     3.0619553029     0.9840222768     0.1563997824
C     0.6975135063     -0.6341149162     2.4953119285
C     1.648821092     0.3975922733     2.0905156417
C     -1.6811490842     -1.2879231835     2.0974851608
C     -0.7161670336     -0.2996598995     2.596824516
C     -3.0148719515     -1.3460838316     0.0369580105
C     -2.7582583925     -0.7493876834     1.3422462151
C     -1.938282294     -0.3568148124     -1.9527981964
C     -2.9249315485     -0.2845665805     -0.9201251356
C     0.1732307964     0.8947846244     -2.5092509772
C     -1.2671595722     0.8867147323     -2.3037052205
C     2.2354429887     2.072646494     -1.748170724
C     0.9290431223     2.1545536926     -2.3431151451
C     2.9933341853     2.3311387535     0.4469143112
C     2.6561672954     3.0418707961     -0.7722763722
C     1.3135454263     1.8010647115     2.2120430915
C     2.0981193377     2.7991407978     1.4887518184
C     -1.0504256134     1.072948938     2.5958627669
C     -0.0536271949     2.1279804604     2.4855544071
C     -2.9930328678     0.6522566355     1.2168945124
C     -3.1952446878     0.9377982925     -0.2025055241
C     -2.2377886903     1.5607300578     1.9494415313
C     -1.9021823938     2.1131356577     -1.8999487209
C     -2.8005343518     2.1288649197     -0.7334958713
C     0.2111039944     3.3926935388     -2.1070025351
C     -1.1879223367     3.3104234346     -1.8736691055
C     1.8485913745     4.1282987484     -0.4178395592
C     1.5024154138     3.9981879216     1.0339152958
C     0.6920173399     4.3589389911     -1.1370169513
C     -0.6730039341     3.3114569641     1.9174478746
C     -1.9893770738     2.9042207304     1.4516594725
C     -2.3892393854     3.2291269735     0.139954029
C     -1.5508170441     4.0753265179     -0.6492948126
C     0.1039455368     4.225437008     1.1588759069
C     -0.3939715353     4.6198313865     -0.1525192319


