60

 C     -0.7412938797     -4.4905610476     -0.4909297249
C     0.4482938252     -4.1025217083     -1.2415554638
C     1.5172404708     -3.9512411039     -0.3402724974
C     -0.4432722294     -4.2555823032     0.9030448007
C     0.9287854448     -4.000407751     1.0301882122
C     -1.3500960686     -3.2626282481     1.4327917318
C     -1.7550478942     -3.5902263429     -0.8367885902
C     -2.2502282784     -2.9231513399     0.3501725171
C     0.1356052187     -3.0048734132     -2.1069496256
C     -1.2894625677     -2.7073280707     -1.8837186968
C     1.0276785825     -1.9126735238     -2.2696491405
C     2.3626977281     -2.8372128155     -0.4086801469
C     2.2359428623     -1.8558648749     -1.4469852126
C     1.4268239596     -2.8933504993     1.7593221057
C     2.5042959803     -2.329988763     0.9626005127
C     -0.8809447729     -2.2090938782     2.2854082751
C     0.5545489272     -1.9833987162     2.4593255475
C     -1.7300763809     -1.0656727155     2.3631175597
C     -2.8333194455     -1.647775023     0.2371186559
C     -2.7730609512     -0.8362260751     1.395993932
C     -1.8243038523     -1.4172282205     -2.0365677587
C     -2.8244749691     -0.9605850182     -1.0607390376
C     0.4544106423     -0.6604958856     -2.7887163468
C     -1.001758495     -0.4358106403     -2.7350393465
C     1.2850945591     0.4673204995     -2.8568584691
C     2.8783164465     -0.5659978121     -1.2268360617
C     2.5321234446     0.516819741     -2.090244972
C     2.9306617317     -1.0602907647     1.1907871342
C     3.3185457442     -0.2057168924     0.0859239099
C     1.0381126032     -0.6233921438     2.7351936991
C     2.2967714153     -0.2392620923     2.1943693981
C     -1.2873295281     0.2126884483     2.8483389865
C     0.0991038206     0.4685297604     3.0384344717
C     -3.0461378814     0.5769280896     1.3536098314
C     -2.1869453145     1.2326902692     2.3230414722
C     -3.1888426101     0.3953392635     -1.0793758362
C     -3.3301930932     1.1893820814     0.1485352298
C     -1.5001238638     0.8877973053     -2.8240932495
C     -2.6362979903     1.25799635     -2.0559656978
C     0.7466281998     1.8247765118     -2.9051413354
C     -0.6157207341     2.0378121296     -2.8203099361
C     2.7318441419     1.8508146101     -1.6802268234
C     1.6094142763     2.6638281946     -2.1454061103
C     3.2659768892     1.1493490909     0.5585250267
C     2.6162987854     1.1315024271     1.8613216152
C     2.9934141113     2.1942909358     -0.3383956673
C     0.5196639319     1.8384643895     2.8772460952
C     1.7687992601     2.1615669386     2.232355619
C     -1.7509759029     2.5288003922     2.1032688595
C     -0.4210379083     2.8491048241     2.4946942195
C     -2.811324882     2.5390452215     -0.1231006831
C     -2.4142740228     2.566211579     -1.49164113
C     -1.1426591682     3.048536064     -1.9032828604
C     -2.0138327655     3.1890200559     0.81741123
C     1.1495574834     3.5095760899     -1.1245709297
C     2.0411996885     3.25281556     0.0278347178
C     1.5196998715     3.2823252687     1.306473766
C     0.1519346165     3.6793127024     1.4861221895
C     -0.2790212256     3.700046981     -0.9505799578
C     -0.7674280872     3.825865808     0.4000500861


