60

 C     1.0808072367     -3.8912916557     1.6711732661
C     1.0284292114     -4.0745173551     0.2676525209
C     2.0064647152     -3.2312210806     -0.3794988197
C     1.9962685504     -2.8434660765     1.9313917056
C     2.633011437     -2.462344788     0.6826062132
C     1.3019708249     -1.8028247687     2.6181721681
C     -0.2373220073     -3.4530323748     2.0745260866
C     -0.1195158405     -2.1928094186     2.7031918558
C     -0.3393682823     -4.0529335426     -0.1794520773
C     -1.1460258859     -3.5831459834     0.963556065
C     -0.6218545051     -3.55499981     -1.4492257154
C     1.6731341135     -2.5860226714     -1.6105580072
C     0.3878388791     -2.7990787886     -2.1913123405
C     2.2738935692     -1.3090280784     -1.8649841339
C     3.0323334195     -1.126562579     0.4869292357
C     3.0481974162     -0.6447394697     -0.8610518591
C     1.678273195     -0.4496543505     2.4881971876
C     2.7372263428     -0.128767634     1.5294959697
C     0.6820569051     0.5573267527     2.8356801255
C     -1.1297838953     -1.2019006007     2.5818480302
C     -0.7387847957     0.1798171874     2.8611265741
C     -2.1803786061     -2.6283512622     0.7856421725
C     -2.2645362103     -1.4966971013     1.7097775745
C     -1.8749927121     -2.9065645427     -1.6562911369
C     -2.6126424625     -2.4031496083     -0.5865696037
C     -0.2882687108     -1.7064429014     -2.8688886282
C     -1.6667950708     -1.8009757857     -2.5927695649
C     1.6458049346     -0.2842316725     -2.6752957285
C     0.2796345205     -0.3985070924     -3.0399297364
C     3.0888877714     0.7667923681     -1.1717070538
C     2.2246968213     0.9875723493     -2.3272074294
C     2.9499967999     1.2283669954     1.2190033144
C     3.1431497791     1.7002163101     -0.163400855
C     1.0172483267     1.9170268775     2.6008573402
C     2.1900942699     2.2224495929     1.8652940325
C     0.0262047537     2.9180043728     2.2115992634
C     -1.6852412805     1.2029890978     2.5933755342
C     -1.2952878484     2.5558982434     2.1860455506
C     -3.0896402254     -0.3922829744     1.3359527521
C     -2.862884309     0.8691318154     1.8762814692
C     -3.1232096782     -1.0838091059     -1.0092013448
C     -2.4297758728     -0.6770356966     -2.2292684741
C     -3.4365359889     -0.1543409228     -0.0731900165
C     -0.581159811     0.7887203177     -2.9433469338
C     -1.9351508442     0.6518741689     -2.4060372542
C     1.4899994177     2.1455126061     -2.4414434045
C     0.0671047718     2.0531233637     -2.7833219612
C     2.4658706212     2.9932701543     -0.3211430188
C     1.9277550375     3.3321255051     0.9565445258
C     0.5917545508     3.7562210115     1.1363230426
C     1.6670565849     3.223767596     -1.4603856039
C     -0.5735194344     3.1146439118     -2.1121366589
C     -0.1921043399     4.0351057641     -0.0142864378
C     0.3908014581     3.8319823596     -1.2932714324
C     -2.1417272331     2.9539473001     1.0469385796
C     -3.0680580765     1.9057308148     0.8509670209
C     -3.2588085232     1.267358256     -0.3821119337
C     -2.4854380054     1.6897912596     -1.5259671708
C     -1.5711822685     3.5505308516     -0.0772807818
C     -1.775973711     2.9214322891     -1.3796140598


