60

 C     0.6998469054     -0.2642973632     -4.274185588
C     1.4660934551     0.7283798974     -3.7374920136
C     0.6657013501     1.9557626655     -3.5843432891
C     -0.6998469054     0.2642973632     -4.274185588
C     -0.7040264941     1.5626123285     -3.6534562893
C     -1.4660934551     -0.7283798974     -3.7374920136
C     0.7040264941     -1.5626123285     -3.6534562893
C     -0.6657013501     -1.9557626655     -3.5843432891
C     1.5462982317     -1.8071141301     -2.4899254029
C     2.2366936631     0.5738472798     -2.5109539359
C     2.2528149355     -0.6587811044     -1.8304128419
C     1.1599028781     2.6703669035     -2.4974513989
C     2.1271729137     1.8194056036     -1.7833711891
C     0.2275527141     3.3807257215     -1.7376010545
C     -1.5462982317     1.8071141301     -2.4899254029
C     -1.1291385495     2.8704051698     -1.6715733016
C     -2.2366936631     -0.5738472798     -2.5109539359
C     -2.2528149355     0.6587811044     -1.8304128419
C     -1.1599028781     -2.6703669035     -2.4974513989
C     -2.1271729137     -1.8194056036     -1.7833711891
C     1.1291385495     -2.8704051698     -1.6715733016
C     -0.2275527141     -3.3807257215     -1.7376010545
C     1.5677444437     -2.9834617477     -0.2797590148
C     2.4437934027     -0.6315210172     -0.3644611769
C     2.2266466311     -1.8689893365     0.3748627236
C     2.2266466311     1.8689893365     -0.3748627236
C     2.4437934027     0.6315210172     0.3644611769
C     0.5943921614     3.7175678413     -0.4208425645
C     1.5677444437     2.9834617477     0.2797590148
C     -1.5677444437     2.9834617477     -0.2797590148
C     -0.5943921614     3.7175678413     0.4208425645
C     -2.4437934027     0.6315210172     -0.3644611769
C     -2.2266466311     1.8689893365     0.3748627236
C     -2.2266466311     -1.8689893365     -0.3748627236
C     -2.4437934027     -0.6315210172     0.3644611769
C     -0.5943921614     -3.7175678413     -0.4208425645
C     0.5943921614     -3.7175678413     0.4208425645
C     -1.5677444437     -2.9834617477     0.2797590148
C     0.2275527141     -3.3807257215     1.7376010545
C     -1.1291385495     -2.8704051698     1.6715733016
C     2.1271729137     -1.8194056036     1.7833711891
C     1.1599028781     -2.6703669035     2.4974513989
C     2.2528149355     0.6587811044     1.8304128419
C     2.2366936631     -0.5738472798     2.5109539359
C     1.1291385495     2.8704051698     1.6715733016
C     -0.2275527141     3.3807257215     1.7376010545
C     1.5462982317     1.8071141301     2.4899254029
C     -2.1271729137     1.8194056036     1.7833711891
C     -1.1599028781     2.6703669035     2.4974513989
C     -2.2528149355     -0.6587811044     1.8304128419
C     -1.5462982317     -1.8071141301     2.4899254029
C     -2.2366936631     0.5738472798     2.5109539359
C     0.6657013501     -1.9557626655     3.5843432891
C     1.4660934551     -0.7283798974     3.7374920136
C     -0.7040264941     -1.5626123285     3.6534562893
C     0.7040264941     1.5626123285     3.6534562893
C     -0.6657013501     1.9557626655     3.5843432891
C     -1.4660934551     0.7283798974     3.7374920136
C     0.6998469054     0.2642973632     4.274185588
C     -0.6998469054     -0.2642973632     4.274185588


