60

 C     0.7095694462     1.2290103602     -4.7615861702
C     1.4191389165     0.0000000139     -4.7615861702
C     2.291257714     0.0000000225     -3.5693142145
C     1.1456288375     1.9842873981     -3.5693142145
C     2.111092531     1.2188398686     -2.8505490716
C     -0.0000000239     2.4376796959     -2.8505490716
C     -0.7095694703     1.2290103462     -4.7615861702
C     -1.1456288764     1.9842873757     -3.5693142145
C     -1.4191389165     -0.0000000139     -4.7615861702
C     0.7095694703     -1.2290103462     -4.7615861702
C     -0.7095694462     -1.2290103602     -4.7615861702
C     2.1110925549     -1.2188398272     -2.8505490716
C     1.1456288764     -1.9842873757     -3.5693142145
C     2.1252196029     -1.2269960821     -1.4226136809
C     2.1252195789     1.2269961237     -1.4226136809
C     2.4149574237     0.0000000237     -0.7162824949
C     -0.0000000241     2.4539922058     -1.4226136809
C     1.2074786913     2.0914144898     -0.7162824949
C     -1.2074787323     2.0914144661     -0.7162824949
C     -2.1110925549     1.2188398272     -2.8505490716
C     -2.291257714     -0.0000000225     -3.5693142145
C     -2.1252196029     1.2269960821     -1.4226136809
C     -1.1456288375     -1.9842873981     -3.5693142145
C     0.0000000239     -2.4376796959     -2.8505490716
C     -2.111092531     -1.2188398686     -2.8505490716
C     1.2074787323     -2.0914144661     -0.7162824949
C     0.0000000241     -2.4539922058     -1.4226136809
C     1.2074787323     -2.0914144661     0.7162824949
C     2.4149574237     0.0000000237     0.7162824949
C     2.1252196029     -1.2269960821     1.4226136809
C     1.2074786913     2.0914144898     0.7162824949
C     2.1252195789     1.2269961237     1.4226136809
C     -1.2074787323     2.0914144661     0.7162824949
C     -0.0000000241     2.4539922058     1.4226136809
C     -2.1252196029     1.2269960821     1.4226136809
C     -2.4149574237     -0.0000000237     -0.7162824949
C     -2.1252195789     -1.2269961237     -1.4226136809
C     -1.2074786913     -2.0914144898     -0.7162824949
C     -2.4149574237     -0.0000000237     0.7162824949
C     0.0000000241     -2.4539922058     1.4226136809
C     -1.2074786913     -2.0914144898     0.7162824949
C     -2.1252195789     -1.2269961237     1.4226136809
C     0.0000000239     -2.4376796959     2.8505490716
C     2.1110925549     -1.2188398272     2.8505490716
C     1.1456288764     -1.9842873757     3.5693142145
C     2.111092531     1.2188398686     2.8505490716
C     2.291257714     0.0000000225     3.5693142145
C     -0.0000000239     2.4376796959     2.8505490716
C     1.1456288375     1.9842873981     3.5693142145
C     -2.1110925549     1.2188398272     2.8505490716
C     -1.1456288764     1.9842873757     3.5693142145
C     -2.111092531     -1.2188398686     2.8505490716
C     -1.1456288375     -1.9842873981     3.5693142145
C     -2.291257714     -0.0000000225     3.5693142145
C     0.7095694703     -1.2290103462     4.7615861702
C     1.4191389165     0.0000000139     4.7615861702
C     0.7095694462     1.2290103602     4.7615861702
C     -0.7095694703     1.2290103462     4.7615861702
C     -0.7095694462     -1.2290103602     4.7615861702
C     -1.4191389165     -0.0000000139     4.7615861702


