60

 C     2.3194854233     -3.313590271     -0.9246217572
C     1.2905386333     -3.2354503356     -1.8401653219
C     0.0639185911     -3.792228989     -1.2409873831
C     1.6882216778     -3.833130488     0.3453881878
C     0.2729844915     -3.9967559411     0.1476281708
C     2.1446635342     -3.0625981317     1.3672430722
C     3.0910311876     -2.1655945992     -0.6195529367
C     3.1481716029     -2.120863037     0.8405078587
C     2.8642171674     -0.939678868     -1.3199989424
C     0.9500056764     -2.013020316     -2.4902235432
C     1.7419176144     -0.8653798842     -2.267028157
C     -1.0291853916     -3.0526958557     -1.7355850278
C     -0.521889649     -1.914019297     -2.4826452049
C     -2.1309329291     -2.8921808394     -0.9099782522
C     -0.6661660583     -3.4090474984     1.0825014017
C     -1.9727850438     -3.1687874361     0.5402480842
C     1.2365538111     -2.3201105673     2.2336711182
C     -0.1828608436     -2.4703994509     2.1028690033
C     2.9864497548     -0.9321220386     1.4970470814
C     1.7998525477     -1.0370373927     2.3892588977
C     3.2459222409     0.2907098925     -0.6357844927
C     3.2769143838     0.2952448505     0.826327105
C     2.9491704479     1.5176997165     -1.2773454738
C     1.1009765102     0.4247047615     -2.5460806391
C     1.8302533382     1.5782799363     -2.2371668837
C     -1.2078094906     -0.6910599764     -2.4676532734
C     -0.3826282186     0.5132173     -2.6813485013
C     -2.9841543659     -1.7632793866     -1.0755257638
C     -2.5288670994     -0.6154389018     -1.8057759196
C     -2.8736454032     -2.3561972458     1.2094214008
C     -3.632649379     -1.586349764     0.2057679828
C     -1.0243168007     -1.3250825445     2.5068525683
C     -2.4169601425     -1.4101033208     2.1970996
C     1.018633157     0.1305468608     2.6365586256
C     -0.4383014459     0.0139074921     2.6828565597
C     2.8760201898     1.4503415222     1.5284553017
C     1.6422108962     1.3610884924     2.3513549302
C     2.9138321773     2.7214892321     -0.535059048
C     2.8447547047     2.6866649297     0.8709891583
C     1.1721048311     2.8656075307     -2.0749093764
C     1.8089863675     3.5582381915     -1.0185780255
C     -1.0019272419     1.7604786859     -2.5366972454
C     -0.2294035213     2.9471662168     -2.2192100149
C     -3.0020171169     0.6980605958     -1.3705977641
C     -2.2954516457     1.8493274268     -1.8281762493
C     -3.8846301767     -0.3417890461     0.701127932
C     -3.166381122     -0.2148476554     1.9930796749
C     -3.6264483766     0.8205547336     -0.0740820082
C     -1.2176973164     1.2200340872     2.4211984878
C     -2.5836095636     1.0437886784     2.0175337516
C     -3.096417666     1.7979678601     0.8552384353
C     0.8763430363     2.5590102437     2.1045544395
C     1.6340394537     3.4071574693     1.2657418959
C     1.0395078881     3.9949702585     0.1099046969
C     -0.5650760359     2.4691662005     2.0073066121
C     -0.9649851954     3.6667240335     -1.2400500973
C     -2.230921278     3.006194761     -1.0280134111
C     -2.4129162438     2.8846672241     0.3852395464
C     -0.3739155848     3.9803927169     0.020667283
C     -1.1827311897     3.3254374773     1.0392018506


