60

 C     0.     4.5592600132     1.8323629913
C     1.1473601966     3.6986233615     2.0351799496
C     1.9934330004     3.6997648064     0.907945504
C     0.     4.8464852646     0.4341764274
C     1.2437325904     4.3994215967     -0.1499211297
C     -1.2437325904     4.3994215967     -0.1499211297
C     -1.1473601966     3.6986233615     2.0351799496
C     -1.9934330004     3.6997648064     0.907945504
C     0.7258550552     2.4180855523     2.5461048833
C     -0.7258550552     2.4180855523     2.5461048833
C     1.4085415462     1.2276116496     2.1918159303
C     2.4795360316     2.4766360271     0.3742995914
C     2.3423760148     1.2367937654     1.0698922599
C     1.2478697424     3.5857359741     -1.2861511765
C     2.1676825473     2.4573242761     -1.0317483975
C     -1.2478697424     3.5857359741     -1.2861511765
C     0.     3.2621893465     -1.9751141033
C     -2.4795360316     2.4766360271     0.3742995914
C     -2.1676825473     2.4573242761     -1.0317483975
C     -1.4085415462     1.2276116496     2.1918159303
C     -2.3423760148     1.2367937654     1.0698922599
C     0.7233632381     0.     2.4628748239
C     -0.7233632381     0.     2.4628748239
C     1.4085415462     -1.2276116496     2.1918159303
C     2.5317444464     0.     0.3454575436
C     2.3423760148     -1.2367937654     1.0698922599
C     2.1170718158     1.2570870435     -1.7578526207
C     2.4600319632     0.     -1.1075913606
C     0.     2.1141842025     -2.7552770089
C     1.1641600334     1.2255260979     -2.8407022989
C     -2.1170718158     1.2570870435     -1.7578526207
C     -1.1641600334     1.2255260979     -2.8407022989
C     -2.5317444464     0.     0.3454575436
C     -2.4600319632     0.     -1.1075913606
C     -1.4085415462     -1.2276116496     2.1918159303
C     -2.3423760148     -1.2367937654     1.0698922599
C     0.7258550552     -2.4180855523     2.5461048833
C     -0.7258550552     -2.4180855523     2.5461048833
C     1.1473601966     -3.6986233615     2.0351799496
C     2.4795360316     -2.4766360271     0.3742995914
C     1.9934330004     -3.6997648064     0.907945504
C     2.1170718158     -1.2570870435     -1.7578526207
C     2.1676825473     -2.4573242761     -1.0317483975
C     0.7394207802     0.     -3.3546142
C     -0.7394207802     0.     -3.3546142
C     1.1641600334     -1.2255260979     -2.8407022989
C     -2.1170718158     -1.2570870435     -1.7578526207
C     -1.1641600334     -1.2255260979     -2.8407022989
C     0.     -2.1141842025     -2.7552770089
C     -2.4795360316     -2.4766360271     0.3742995914
C     -2.1676825473     -2.4573242761     -1.0317483975
C     -1.1473601966     -3.6986233615     2.0351799496
C     0.     -4.5592600132     1.8323629913
C     -1.9934330004     -3.6997648064     0.907945504
C     1.2437325904     -4.3994215967     -0.1499211297
C     1.2478697424     -3.5857359741     -1.2861511765
C     0.     -3.2621893465     -1.9751141033
C     -1.2478697424     -3.5857359741     -1.2861511765
C     0.     -4.8464852646     0.4341764274
C     -1.2437325904     -4.3994215967     -0.1499211297


