60

 C     0.009553899     -4.4305884938     0.4130775246
C     -0.9560960729     -4.290427556     -0.5741938153
C     -2.0750474282     -3.4722117201     -0.0275406073
C     -0.5724619608     -3.8464834669     1.6583227575
C     -1.7834430235     -3.1211580557     1.3112251096
C     0.4174173441     -3.2142563227     2.339789059
C     1.3210756303     -3.8754131371     0.2482890297
C     1.652782828     -3.2812421118     1.5293833957
C     1.6615890704     -3.1536779603     -0.9641998627
C     -0.6153500152     -3.7577192778     -1.8227928695
C     0.6666764481     -3.1742281299     -2.0188521827
C     -2.4497701627     -2.5027202379     -1.0034748319
C     -1.6155015143     -2.7250495904     -2.1428079383
C     -2.752809896     -1.1752108116     -0.6082580429
C     -1.9595251853     -1.7620723731     1.7313239467
C     -2.6974414004     -0.882417642     0.8206907889
C     0.2591204513     -1.8696391781     2.8242132611
C     -0.9470832544     -1.1419280827     2.5988804916
C     2.2656290996     -2.0555382029     1.6372783058
C     1.4849829526     -1.1995678607     2.5751013103
C     2.5163858394     -1.9556216603     -0.8479820068
C     2.8812543193     -1.4387883914     0.4830045072
C     2.4699509845     -0.9686761103     -1.8780161538
C     0.4267783226     -1.9540934508     -2.7893197079
C     -1.0086821617     -1.6424539727     -2.7750356191
C     1.3317391437     -0.9364437801     -2.7693927124
C     -2.4689110088     -0.0741446064     -1.5256381829
C     -1.458491534     -0.3132840742     -2.5429549897
C     -2.7506394658     1.2891583333     -1.1023735638
C     -2.8517009115     0.4445648442     1.2006879563
C     -3.1501996705     1.4984652827     0.2672533979
C     -0.8704266773     0.3079568038     2.7011201825
C     -2.0421706438     1.0185835212     2.2783129923
C     1.5912740503     0.1989157219     2.5466725147
C     0.3935645447     1.0187489809     2.7361420452
C     3.2423440121     -0.0997996032     0.6601556398
C     2.687979954     0.7035148907     1.7861129488
C     2.8459164953     0.3979669966     -1.675450681
C     3.3694949769     0.8121886221     -0.4487266882
C     0.8856474082     0.4391846929     -2.9125523801
C     -0.5151093571     0.7636582389     -2.8495284331
C     1.8873480893     1.2834222352     -2.3499361687
C     -2.0631725076     2.3749245536     -1.7566826819
C     -0.8441850282     2.0717861918     -2.478724551
C     -1.8310092194     3.6098862191     -1.076691772
C     -2.845771297     2.7303011272     0.9371351713
C     -2.0488566109     2.3943801228     2.1136719635
C     -2.1648703178     3.7447503773     0.2786545247
C     0.4320782641     2.4431831958     2.3544132465
C     -0.8104731769     3.1423224705     2.0968210314
C     -0.9156146385     4.0732798416     1.0363692303
C     2.6811974046     2.0381481344     1.3974452675
C     3.0743650147     2.1249698601     0.0150881199
C     1.5651642748     2.9121155329     1.6229435198
C     1.5387758592     2.5737117769     -1.8415355042
C     0.1935632032     3.0254482955     -2.0809161644
C     -0.4181694122     3.9434830176     -1.2118814173
C     0.1433240232     4.2181754351     0.095684182
C     2.1827583808     3.0193456108     -0.6267797653
C     1.4032512645     3.6983152332     0.406976272


