60

 C     -4.4177859602     0.1536784731     0.47565389
C     -4.138599878     -1.0070087828     -0.2714254476
C     -3.7795259909     -0.6213822436     -1.6070541567
C     -4.0056210467     1.3107498594     -0.3374278715
C     -3.5187447252     0.8050857314     -1.5700656153
C     -3.1469608712     2.0982340836     0.4698552623
C     -3.8509884203     0.302651135     1.7468098517
C     -3.2292399886     1.6116489871     1.8264643238
C     -2.9512117426     -0.6708544031     2.2964616389
C     -3.2050722445     -2.001119709     0.2044883931
C     -2.6226852138     -1.838892924     1.5152530553
C     -2.7678068507     -1.5155572059     -2.0405303021
C     -2.3529901391     -2.3511332237     -0.9079966434
C     -1.7978812635     -1.0530944277     -2.886778507
C     -2.3046885922     1.3128114231     -2.1645850105
C     -1.6774216783     0.4150863224     -3.0811545532
C     -1.8579653443     2.5820271226     -0.048273825
C     -1.4422901782     2.2486410903     -1.4219202722
C     -0.8586571519     2.812439292     0.9182492482
C     -2.0626828147     1.4747690765     2.5947933799
C     -1.8800125631     0.0636155932     2.9577540451
C     -0.9393219993     2.2171993851     2.2452751023
C     -0.5836822371     -0.4586718272     3.1273765293
C     -1.3123075649     -2.3513083044     1.6764819109
C     -0.3652822993     -1.7745690928     2.6014870606
C     -0.9773641058     -2.7273045806     -0.7586319902
C     -0.5409639968     -2.8698822857     0.5797528537
C     -0.4594120161     -1.613680748     -2.8910261889
C     0.0301180794     -2.3761893934     -1.7775183231
C     -0.3680084681     0.6365692173     -3.4717678383
C     0.3680084681     -0.6365692173     -3.4717678383
C     -0.0301180794     2.3761893934     -1.7775183231
C     0.4594120161     1.613680748     -2.8910261889
C     0.5409639968     2.8698822857     0.5797528537
C     0.9773641058     2.7273045806     -0.7586319902
C     0.3652822993     1.7745690928     2.6014870606
C     0.5836822371     0.4586718272     3.1273765293
C     1.3123075649     2.3513083044     1.6764819109
C     1.8800125631     -0.0636155932     2.9577540451
C     0.9393219993     -2.2171993851     2.2452751023
C     0.8586571519     -2.812439292     0.9182492482
C     2.0626828147     -1.4747690765     2.5947933799
C     1.4422901782     -2.2486410903     -1.4219202722
C     1.8579653443     -2.5820271226     -0.048273825
C     1.6774216783     -0.4150863224     -3.0811545532
C     1.7978812635     1.0530944277     -2.886778507
C     2.3046885922     -1.3128114231     -2.1645850105
C     2.3529901391     2.3511332237     -0.9079966434
C     2.7678068507     1.5155572059     -2.0405303021
C     2.6226852138     1.838892924     1.5152530553
C     2.9512117426     0.6708544031     2.2964616389
C     3.2050722445     2.001119709     0.2044883931
C     3.2292399886     -1.6116489871     1.8264643238
C     3.1469608712     -2.0982340836     0.4698552623
C     3.8509884203     -0.302651135     1.7468098517
C     3.5187447252     -0.8050857314     -1.5700656153
C     3.7795259909     0.6213822436     -1.6070541567
C     4.138599878     1.0070087828     -0.2714254476
C     4.0056210467     -1.3107498594     -0.3374278715
C     4.4177859602     -0.1536784731     0.47565389


