60

 C     -2.2078418092     -3.9699112336     0.7007299188
C     -1.2535617043     -4.4188524133     -0.2831385572
C     -0.0076823823     -4.5549971846     0.3523573058
C     -1.4808607767     -3.5842594446     1.906313273
C     -0.1492369163     -3.9687287164     1.7241802139
C     -1.7404080441     -2.1936345395     2.1656174457
C     -2.8292305779     -2.8182559212     0.2007447623
C     -2.716182003     -1.7622689496     1.1700488071
C     -1.350546214     -3.5471763309     -1.4511190507
C     -2.3786431903     -2.5500557859     -1.1665985129
C     -0.1800696404     -3.1067904648     -2.06702648
C     1.1678552433     -4.0288232245     -0.2256828274
C     1.1230187912     -3.435296776     -1.5158493885
C     0.9200279104     -3.0720192334     1.9379897078
C     1.8654265195     -3.2826707825     0.8376991758
C     -0.6993907724     -1.2747219045     2.4760086362
C     0.6923475355     -1.7206516108     2.3891454425
C     -0.9990114025     0.1478956062     2.3272949997
C     -2.7683799383     -0.4461674632     0.7446505761
C     -2.1519442684     0.573305359     1.5635915621
C     -2.2585851247     -1.2252028149     -1.5873221915
C     -2.7978993001     -0.1948722256     -0.6943970464
C     -0.0897743306     -1.7482205432     -2.5974937938
C     -1.1186318388     -0.8149987986     -2.4238830151
C     1.9992799706     -2.3324579947     -1.8167031403
C     1.2852194581     -1.3017201118     -2.5396332804
C     2.7838515067     -2.3267025469     0.5305114369
C     2.991070221     -1.943340829     -0.8816532768
C     1.7309827205     -0.7240558636     2.1471644985
C     2.8517355407     -1.1085191079     1.3242531099
C     0.0548781525     1.1165486785     2.5337161436
C     1.4300270961     0.6904687321     2.2736531234
C     -0.2918543012     2.4880656833     2.4153323692
C     -2.3398637347     1.9506791499     1.1740771102
C     -1.5200217694     2.925903036     1.7969579233
C     -2.7310321273     1.1164330906     -1.102406173
C     -2.8093882558     2.2117872219     -0.1772653969
C     -0.8020714539     0.6053437855     -2.5655460475
C     -1.8346503624     1.5135412914     -2.2097935211
C     1.6229706144     0.083149838     -2.4363075855
C     0.5703572108     1.090681541     -2.539595859
C     3.4109877045     -0.6209361689     -0.886330931
C     3.4813218465     -0.1412574979     0.5011610213
C     2.7962950562     0.4019156239     -1.6697558757
C     2.2488932221     1.6529734981     1.5530308226
C     3.1069526729     1.1832132058     0.5280963592
C     2.7703432146     1.5825893085     -0.8628641005
C     0.7052367608     3.4933923762     2.0460016476
C     1.8074579682     2.9812943099     1.3407996384
C     -1.2298103437     4.2005288367     1.124139921
C     0.1133291122     4.577989285     1.3399580017
C     -2.3203635721     3.3632520189     -0.8705864403
C     -1.5836148263     2.8668902212     -2.0545609051
C     -1.5746244664     4.3519793035     -0.2682606759
C     0.8309241903     2.4664952864     -2.0974190724
C     1.9186346533     2.6607065774     -1.1275511787
C     1.7490241615     3.5610851836     -0.0159008248
C     0.7243023416     4.5392649204     -0.0035094144
C     -0.2567739909     3.3962397056     -2.0021400113
C     -0.2808017579     4.4239537075     -0.9849300799


