60

 C     0.3350219071     4.7146570373     -0.4022236726
C     -0.6819211428     4.6301483672     0.5615202459
C     -0.1391977968     3.8510693252     1.7073479336
C     1.4991194279     4.1020252234     0.1075744356
C     1.2377311588     3.5335050074     1.4387458598
C     2.0258741329     3.2371399557     -0.9114642266
C     -0.0644312907     3.9255213265     -1.5962505422
C     0.9685511138     3.0100963736     -1.9239047864
C     -1.7249232295     3.8544526883     0.0164746835
C     -1.3582209721     3.4080980726     -1.3481387951
C     -1.0115069316     2.7947924776     1.9911177319
C     -2.0981638044     2.8456795075     0.9612532832
C     -0.5442622023     1.5098897356     2.3963149296
C     1.7453604779     2.2466139287     1.7669685057
C     0.8797611026     1.2355946507     2.3813757243
C     2.7453075181     2.1581733953     -0.5099865765
C     2.7574896276     1.7123181145     0.8902447676
C     2.808011088     0.9740352808     -1.32473227
C     0.6840523848     1.666308082     -2.3379224998
C     1.7289021346     0.6407826256     -2.1729640079
C     -1.6789283144     2.0903614622     -1.727228812
C     -0.6914451907     1.2242518626     -2.3590215489
C     -2.6924877286     1.6869496838     0.5254201718
C     -2.7068727071     1.4282697121     -0.9316002857
C     -1.505083247     0.4162839584     2.3182393445
C     -2.6720396267     0.5270706048     1.427731866
C     -1.0596743268     -0.8690459677     2.634898018
C     1.3290585281     -0.1532817429     2.4583042436
C     0.3567292317     -1.1527585172     2.7112516861
C     3.1494170825     0.3687539509     0.8987368603
C     3.3962120274     -0.0347935261     -0.4967669265
C     2.5615179083     -0.5931522805     1.7904833685
C     3.3656177079     -1.3366408853     -0.8775170612
C     1.4386355577     -0.7912225604     -2.3697689913
C     2.4090499762     -1.7360970042     -1.9105639904
C     -1.0038398305     -0.2018735398     -2.5325554727
C     0.0553495522     -1.2181999376     -2.5032784361
C     -3.1430739406     0.2013765973     -1.3522710155
C     -2.3360080108     -0.6073796517     -2.2716282801
C     -3.3467378319     -0.6168154607     1.011497207
C     -3.7668773882     -0.6957432491     -0.3933971897
C     -1.7388940727     -2.0611267523     2.1586339629
C     -2.8931002685     -1.9542786516     1.3902634607
C     0.5465328604     -2.5339862488     2.3191739174
C     -0.7282750273     -3.0398256372     1.8382797641
C     2.7616979405     -1.9654170542     1.4705458246
C     3.3336155071     -2.3338657565     0.1751184456
C     1.7389421209     -2.9583693818     1.7420188216
C     2.0441901154     -3.082089373     -1.5657120233
C     2.7015404308     -3.4692841521     -0.3158102712
C     1.6867766935     -3.8834458807     0.610089633
C     -0.294704846     -2.573288409     -2.0567830798
C     -0.7728249014     -3.6934123944     0.565582434
C     0.6959262825     -3.4160003007     -1.4711859261
C     0.4713346303     -3.9580451287     -0.0898321354
C     -2.6561997827     -1.973258201     -1.9565752298
C     -3.5901785657     -1.9885645714     -0.8335119685
C     -3.0342283181     -2.8053378603     0.2226645321
C     -1.6337503969     -2.8638536611     -1.6622111216
C     -1.8894745348     -3.4337652698     -0.2830648197


