60

 C     0.0757478342     4.358937382     0.5589491109
C     -1.241646235     4.1494364172     0.3311541864
C     -1.4117759559     3.8809757495     -1.1411453335
C     0.8062628169     4.2208603799     -0.7394811568
C     -0.1196970711     3.6705152159     -1.7172348968
C     1.9917531672     3.6140688572     -0.4486072765
C     0.7853836031     3.5917661878     1.5752278185
C     2.0438015314     3.3178210281     0.9989178778
C     0.0937781981     2.5396602935     2.3055030828
C     -1.9955312853     3.1425893165     1.0687228359
C     -1.3244556358     2.2691331976     2.0317511469
C     -2.3847539936     2.9308088732     -1.2461374408
C     -2.8577919625     2.5726829486     0.1167418551
C     -2.1817524939     1.7103516042     -1.950996612
C     0.1760200445     2.4066917514     -2.3412704575
C     -0.9093072081     1.4132124649     -2.5177611035
C     2.4077361015     2.4291222375     -1.1390092072
C     1.5333772531     1.8657044215     -2.1413108567
C     2.6961807615     2.0731081281     1.1430999866
C     3.0345237892     1.5524333879     -0.1881338961
C     0.9123768956     1.4291059004     2.6891075067
C     2.2131170792     1.1993069051     2.1049083348
C     0.3684983829     0.1375833871     2.9597121993
C     -1.8424862747     0.9132455816     2.1900106769
C     -0.9973585044     -0.1349169584     2.7887694279
C     -3.1708613944     1.2201983329     0.1168694206
C     -2.8832970986     0.682031253     -1.2003375348
C     -2.87277747     0.4330266271     1.2677158124
C     -2.6315732181     -0.6839401707     -1.3686600075
C     -0.6153785145     -0.0136311955     -2.7333245993
C     -1.5494328525     -1.0768484005     -2.2855821789
C     1.769554743     0.5138269259     -2.4307301336
C     0.7325694576     -0.3870302311     -2.9059059307
C     3.135439488     0.1627002232     -0.4046497669
C     2.7006424644     -0.292524304     -1.6814286349
C     2.4144063429     -0.2248091326     1.9525216475
C     1.3770525585     -0.8918652155     2.6279616498
C     2.9916341587     -0.7656176097     0.7343693296
C     1.0320927436     -2.2366388411     2.3191627546
C     -1.3462896196     -1.5358087165     2.6531415882
C     -0.3231398053     -2.6124760762     2.4501522861
C     -3.057654433     -0.9466930638     1.0568464149
C     -3.0015001352     -1.5139218419     -0.2724886432
C     -2.4748772093     -1.9063658107     1.9380523203
C     -0.885645795     -3.6142201129     1.580352592
C     -2.4602253905     -2.856737671     -0.1614699737
C     -2.1710089735     -3.1181182125     1.1910574851
C     -1.1082466438     -2.4143209196     -2.2291192285
C     -1.5845746872     -3.3429703299     -1.1706773881
C     1.1860130128     -1.7363325804     -2.7157574821
C     2.4003666478     -1.6763465222     -1.9138033406
C     0.2650599866     -2.7685196696     -2.5108103859
C     2.7492909746     -2.1172585448     0.4744258679
C     1.8526138724     -2.9167637019     1.3307767483
C     2.5962283256     -2.6115498641     -0.8900700543
C     -0.0915107877     -4.2459985042     0.5885638956
C     -0.5329630379     -4.1876924532     -0.7888034342
C     0.6268529687     -3.8529058291     -1.6387858487
C     1.3097037784     -3.9561424581     0.5630485511
C     1.7494344046     -3.7619403373     -0.8341019074


