60

 C     2.4039340912     -3.8573381586     0.3298724689
C     1.1893036723     -4.3312443668     0.9395918851
C     0.275406033     -4.5218773501     -0.1055301551
C     2.1670585279     -3.5766921746     -1.096950239
C     0.8691807244     -4.0197091178     -1.387255973
C     2.4853203214     -2.2186982085     -1.3436176785
C     2.8025756288     -2.6722471143     0.9510572312
C     3.0423456901     -1.6955216277     -0.0693364093
C     0.8349839245     -3.3727178533     1.9855031991
C     1.8499262552     -2.3199426173     1.9905234759
C     -0.4923711807     -2.9724266369     2.1109275518
C     -1.0674018018     -4.0676385062     -0.0313858419
C     -1.5049284179     -3.4263419101     1.1457008332
C     -0.0837635721     -3.1780311417     -1.9976142111
C     -1.3585076155     -3.4051170852     -1.307409962
C     1.5894436081     -1.3588781592     -2.0652961695
C     0.2524940625     -1.8240368068     -2.399233357
C     1.827281331     0.0621914891     -1.9634193798
C     2.8935586953     -0.3699172322     0.2248256069
C     2.6927860729     0.506451004     -0.9060835672
C     1.5115244261     -0.9600349829     2.2053850894
C     2.2661496022     0.056109642     1.4862076782
C     -0.837229453     -1.6142909059     2.4737032352
C     0.142472063     -0.5895472499     2.563562041
C     -2.5177588419     -2.4140596583     1.0684301065
C     -2.1576048264     -1.3177733345     1.9547235593
C     -2.3446853043     -2.4710041024     -1.386414061
C     -3.0876783493     -2.0951468495     -0.179740029
C     -0.815936609     -0.8295715916     -2.5261666313
C     -2.1417039542     -1.2482508959     -2.172234422
C     0.8629489577     1.0409628764     -2.4363279635
C     -0.5225802403     0.615039408     -2.5172792978
C     1.1605034808     2.4232954782     -2.2543732997
C     2.8484023369     1.849519559     -0.6264745122
C     2.3336115119     2.8153674839     -1.5120676049
C     1.9767982437     1.4364437521     1.6743645769
C     2.6152768092     2.3463084461     0.7480636432
C     -0.2826664052     0.8033101082     2.4980784959
C     0.7304336794     1.8485236645     2.3291475809
C     -2.5526717527     0.0084985381     1.7143626568
C     -1.6661092887     1.0875029933     2.1625130319
C     -3.5589660702     -0.7856627391     -0.383517047
C     -3.0496419404     -0.2972164248     -1.6802219596
C     -3.3881810329     0.243566513     0.5509957632
C     -1.5286571807     1.5860307212     -2.0842668616
C     -2.7494603489     1.0617125944     -1.5766148333
C     -3.1498959597     1.4507155306     -0.2231949248
C     0.1470853238     3.3983480279     -1.8782328091
C     -1.1548287062     2.9375423358     -1.6134058131
C     2.1228930061     4.0417789777     -0.8017720607
C     2.2429226389     3.7026239812     0.6436680507
C     0.7928841541     4.404110991     -0.9967113258
C     0.3175921484     3.207349109     2.1421322773
C     1.0830296067     4.1208611977     1.3188992267
C     0.1940057421     4.6892497836     0.2951640505
C     -1.9732523982     2.4045881274     1.707870942
C     -2.5938717901     2.5380996742     0.3657975625
C     -1.8131492628     3.4606017444     -0.4059576497
C     -1.0541837414     3.4334150049     1.8022725298
C     -1.0764463252     4.2308159454     0.5447616997


