60

 C     -0.8421109997     4.314995474     0.7140429748
C     -2.0667543697     3.871813166     0.2482032586
C     -1.8981264624     3.4143726787     -1.1723481067
C     0.0703188751     4.3422969932     -0.4480256714
C     -0.550312853     3.5717349569     -1.5297013238
C     1.3155192133     3.9976351704     -0.0104757147
C     -0.1656255563     3.6011372322     1.7786432095
C     1.2170141076     3.5778505573     1.4038827409
C     -0.7372435925     2.3904086307     2.3149490473
C     -2.7434629426     2.8569852614     0.9190140147
C     -2.1021810399     2.0962680858     1.938667309
C     -2.5640400188     2.1758210836     -1.3189648976
C     -3.2482047894     1.8978895674     -0.0837447893
C     -1.9315656695     1.0935136516     -2.0097222274
C     0.1726865372     2.4751984645     -2.1567185266
C     -0.5660844263     1.2634187791     -2.5010308085
C     2.1260332029     3.0532756722     -0.7105942703
C     1.611745289     2.3554195213     -1.8766249695
C     2.0215497602     2.4575194378     1.5500458579
C     2.8013444101     2.2904672861     0.2993072297
C     0.1353415027     1.2324517011     2.5711580107
C     1.5426243099     1.2738835294     2.2055448774
C     -0.4723189789     -0.091031614     2.7337141791
C     -2.5253907104     0.7223099512     1.7383733557
C     -3.2215977245     0.6266721779     0.4545400106
C     -1.811380293     -0.3716535323     2.2046354206
C     -2.4081248714     -0.2373058431     -1.6816405426
C     -2.9781644142     -0.5034076226     -0.3736812665
C     -1.8065801853     -1.3455542082     -2.3417935102
C     0.1860049939     0.0431608131     -2.8464992591
C     -0.4629163131     -1.2251503773     -2.8351474171
C     2.2928088459     1.1467194431     -2.206095865
C     1.5849741571     0.0017482449     -2.7039952632
C     3.3693727328     1.0757414172     -0.0194707399
C     3.3234965674     0.6351172712     -1.357636753
C     2.2903282932     0.0272011854     1.9542524584
C     3.2069954543     -0.0780051081     0.8650334466
C     0.3708059823     -1.2121597366     2.8896733079
C     1.7414700821     -1.1847167363     2.3990120614
C     -0.1373103038     -2.519072787     2.7202847243
C     -2.1653628907     -1.7007413499     1.6529399556
C     -2.7375490319     -1.7585218801     0.3029594567
C     -1.3854294726     -2.7987294042     2.1023713102
C     -2.0027378467     -2.6444328874     -1.8530607335
C     -2.4500457484     -2.8926767429     -0.5330599078
C     0.2335120777     -2.4799823199     -2.5500938272
C     -0.7440265006     -3.3895428694     -2.0626453234
C     2.238381397     -1.2258446275     -2.1883254763
C     3.2449533531     -0.8004296583     -1.3298029307
C     3.2075077609     -1.2547281582     0.0417602797
C     1.5125316331     -2.4335255283     -1.9297006229
C     1.9784788549     -2.4355059614     1.7241378324
C     0.9068097789     -3.3170552791     2.0732860357
C     2.4864810469     -2.4346028806     0.3829717833
C     1.7440230117     -3.1651533172     -0.6670404474
C     -1.137760867     -3.9407843568     1.2282191572
C     -1.6446410963     -3.9869575732     -0.0322524373
C     -0.4989493695     -4.1987871347     -0.9797581876
C     0.3404142402     -4.1501851888     1.1425507071
C     0.7324717668     -4.1067827215     -0.2445220967


