60

 C     -1.4985340635     -4.5991566541     -0.7179985742
C     -0.3282852586     -4.6797560149     -1.4249822726
C     0.8209824709     -4.6653100239     -0.508920549
C     -1.1406764138     -4.4241746658     0.712620948
C     0.3042930541     -4.5484850917     0.8446897398
C     -1.7464492746     -3.2419915282     1.1423942401
C     -2.2183174875     -3.4242722782     -1.1709394614
C     -2.4673326358     -2.655994658     -0.0345857431
C     -0.227732521     -3.5490301234     -2.3463494477
C     -1.429528271     -2.7619571355     -2.2200318128
C     1.7071100432     -3.6807057125     -0.9946106689
C     1.0127483499     -2.9265645606     -2.0939095273
C     2.4787260751     -2.9427952361     -0.0754826642
C     0.9635345509     -3.6767600831     1.7336514221
C     2.1929679788     -3.0878225786     1.3118607309
C     -1.0866271026     -2.3093765816     2.0465461701
C     0.2403933319     -2.597416336     2.4165006953
C     -1.5553023436     -0.9253494432     2.096277485
C     -2.5904657815     -1.2576189682     -0.1276032045
C     -2.5186467894     -0.4896602148     1.0978574156
C     -1.3370176163     -1.358509531     -2.2249735744
C     -2.2091587576     -0.5945167067     -1.3388597398
C     1.1384303273     -1.51126268     -2.1698193184
C     -0.0420599347     -0.7221747275     -2.4319319192
C     2.7818202783     -1.5460389718     -0.3184408479
C     2.182824451     -0.8428034151     -1.3821879196
C     2.3445503213     -1.7897914911     1.9237024708
C     1.1603052011     -1.4622246375     2.6149524469
C     2.8354783142     -0.8632786673     0.9785877373
C     -0.7225292578     0.1198203773     2.6619857431
C     0.7225292578     -0.1198203773     2.6619857431
C     -1.1603052011     1.4622246375     2.6149524469
C     -2.8354783142     0.8632786673     0.9785877373
C     -2.3445503213     1.7897914911     1.9237024708
C     -2.182824451     0.8428034151     -1.3821879196
C     -2.7818202783     1.5460389718     -0.3184408479
C     0.0420599347     0.7221747275     -2.4319319192
C     -1.1384303273     1.51126268     -2.1698193184
C     2.2091587576     0.5945167067     -1.3388597398
C     1.3370176163     1.358509531     -2.2249735744
C     2.5186467894     0.4896602148     1.0978574156
C     1.5553023436     0.9253494432     2.096277485
C     2.5904657815     1.2576189682     -0.1276032045
C     -0.2403933319     2.597416336     2.4165006953
C     1.0866271026     2.3093765816     2.0465461701
C     -2.1929679788     3.0878225786     1.3118607309
C     -2.4787260751     2.9427952361     -0.0754826642
C     -0.9635345509     3.6767600831     1.7336514221
C     -1.0127483499     2.9265645606     -2.0939095273
C     -1.7071100432     3.6807057125     -0.9946106689
C     1.429528271     2.7619571355     -2.2200318128
C     0.227732521     3.5490301234     -2.3463494477
C     2.4673326358     2.655994658     -0.0345857431
C     1.7464492746     3.2419915282     1.1423942401
C     2.2183174875     3.4242722782     -1.1709394614
C     -0.3042930541     4.5484850917     0.8446897398
C     -0.8209824709     4.6653100239     -0.508920549
C     0.3282852586     4.6797560149     -1.4249822726
C     1.1406764138     4.4241746658     0.712620948
C     1.4985340635     4.5991566541     -0.7179985742


