60

 C     0.2904192283     -4.6526055499     0.4540261802
C     -1.1072497413     -4.2959458611     0.2987034539
C     -1.3038941904     -3.894266606     -1.027535233
C     0.9849748993     -4.2194212397     -0.7699305805
C     0.0396988947     -3.8126975073     -1.6905208894
C     2.0116548773     -3.2528734304     -0.4450936291
C     0.7774902204     -3.7972093723     1.4384422457
C     1.9295140457     -3.0427137918     0.9785082856
C     -1.4828924682     -3.3378047083     1.3289757348
C     -0.2789124131     -3.0369040025     2.0798345561
C     -2.399829043     -2.2873204671     1.0429855653
C     -2.015494438     -2.7267751741     -1.3617353084
C     -2.7394286113     -1.999063994     -0.3588013465
C     0.1109888094     -2.5536857429     -2.3761035439
C     -1.2073477744     -1.9663753638     -2.3030499158
C     2.2603357869     -2.1203119643     -1.2980696737
C     1.2469516394     -1.7020239713     -2.2828966293
C     3.037240517     -1.1191936418     -0.6988801298
C     2.2527590324     -1.793393632     1.5502256467
C     3.1313044075     -1.0245005235     0.7373929408
C     -0.0183877739     -1.735605954     2.5834211784
C     1.3025165878     -1.0877537866     2.4138805583
C     -2.338105521     -1.1689428009     1.9200722454
C     -1.1530844948     -0.8918392807     2.6908078678
C     -2.9413951035     0.0993988059     1.5995731892
C     -3.0941357905     -0.675227214     -0.7061140867
C     -3.347792963     0.3476101943     0.2905004884
C     -1.3987550693     -0.5910908228     -2.5120933153
C     -2.5250541847     -0.0111099876     -1.8487620341
C     1.0902205048     -0.2801472607     -2.6034279267
C     -0.2485993417     0.2375054994     -2.849677884
C     3.1147232197     0.2284191851     -1.2460755242
C     2.132790052     0.6677718487     -2.1988304115
C     3.345655802     0.3267106315     1.0344739238
C     3.5125186341     1.0904323468     -0.203578599
C     1.4081148948     0.3504717909     2.5528480045
C     2.5162851632     1.0303590959     1.9103341966
C     -1.0458323492     0.529529662     2.8807929487
C     -2.2265960114     1.1406563088     2.3121746369
C     0.2184693308     1.1745942351     2.8289420969
C     -2.1745598442     2.4343988177     1.8058821806
C     -3.1291164211     1.6565393079     -0.3102973365
C     -2.6116493125     1.4127474386     -1.6540595512
C     -2.6280064257     2.7106653082     0.436568193
C     -0.4683605963     1.6502718529     -2.850692355
C     -1.6543811952     2.2399131847     -2.2065155932
C     1.8514917487     2.0751895626     -2.1874288859
C     0.5917227974     2.5423286089     -2.6410252643
C     2.9469233783     2.3659189683     -0.0195494934
C     2.3856195555     2.3903175959     1.3498842803
C     2.2403012741     2.9417057171     -1.071753337
C     0.2071440524     2.5679748437     2.4445903826
C     -0.9814817011     3.1747381895     2.00893726
C     1.2803775096     3.1432213049     1.6127012495
C     -1.6860411424     3.6620349223     -0.1709045332
C     -1.2331351294     3.4472197244     -1.496232043
C     0.1426406     3.6408173476     -1.7954611666
C     1.1176919693     3.8264334424     -0.7800678267
C     -0.713578846     3.989521621     0.8178662312
C     0.6745583638     3.9813866887     0.5618185255


