60

 C     2.5955201939     -3.3597418765     0.6434744217
C     1.3136544336     -3.5622696792     1.2638885616
C     0.3148751187     -3.6953067678     0.293508534
C     2.3375984076     -3.1366308517     -0.7599070462
C     0.9767824974     -3.3722597068     -1.0172536311
C     2.8236605859     -1.8353745984     -1.1404829029
C     3.059471863     -2.1311828032     1.1396926396
C     3.3290760549     -1.2137795932     0.0681645903
C     1.0926553083     -2.556122863     2.2860344931
C     2.2034075659     -1.6308578416     2.1874030557
C     -0.2121654498     -2.0793457429     2.5586077951
C     -1.0262021893     -3.2765126767     0.5317737151
C     -1.341342287     -2.4675207814     1.7147183194
C     -1.8234376404     -3.1625264631     -0.6402590405
C     0.2440200748     -2.6420195647     -2.0044199134
C     -1.15790477     -2.8267593595     -1.9423150511
C     2.1252006856     -1.0352541999     -2.104168197
C     0.7990386042     -1.4130737094     -2.5666523569
C     2.4744855059     0.3209551442     -2.110739392
C     3.2608515185     0.1893801708     0.2576221998
C     3.1995544012     0.9184244831     -0.96585902
C     2.0364910178     -0.2183733325     2.3810834668
C     2.6459949061     0.7662084492     1.4457997956
C     -0.2267782875     -0.8037624458     3.2099699731
C     0.8840889546     0.1374674965     3.0909397262
C     -1.3963267654     -0.0346687218     3.2169670497
C     -2.4827203055     -1.5564079308     1.6120215993
C     -2.4503369182     -0.3123361008     2.3287436646
C     -3.0517780414     -2.4855791802     -0.63660108
C     -3.2659394393     -1.5268823777     0.4273574569
C     -2.0194776773     -1.9519132635     -2.6211637165
C     -3.2669548632     -1.8477917324     -1.9098259839
C     -0.1228553935     -0.3527417938     -2.9525230714
C     -1.513446998     -0.6351715754     -2.9398328367
C     1.6335873575     1.3422476926     -2.6658394097
C     0.2507866647     1.0586516923     -2.857726789
C     2.941702289     2.2712619364     -0.9439117708
C     2.0598943584     2.5855430885     -2.0913531325
C     2.1418967917     2.1323715441     1.3906499791
C     2.4418388471     2.9287712379     0.2181929649
C     0.3405803614     1.4889804464     3.0129850127
C     -1.0547480299     1.3792422561     3.1703244274
C     0.9053272419     2.472594806     2.1446606664
C     -2.7958983313     0.9614816646     1.6926496658
C     -1.9425309526     2.0013099     2.2685854671
C     -3.5480145689     -0.2621966929     -0.2226048265
C     -3.4351660466     -0.4807678903     -1.6372350678
C     -2.432001545     0.3025844407     -2.3363171341
C     -3.1339575925     0.9846877264     0.3260792059
C     -0.7256185828     2.0550707665     -2.376675654
C     -2.0004733387     1.5579716339     -1.8548068484
C     -2.5078584278     1.9982919925     -0.5563770828
C     1.1749237638     3.5428214331     -1.7065847177
C     1.4776859335     3.8870137139     -0.2873220243
C     -0.249255843     3.2883529618     -1.8317645502
C     -0.0480217552     3.3786685062     1.5583879101
C     -1.4549787154     3.0233833112     1.4790460887
C     -1.8388803365     3.0817002732     0.0623705977
C     0.2670440548     4.0400026566     0.3276315286
C     -0.8266242695     3.7696903921     -0.6288122248


