60

 C     -0.199873605     3.9081501194     -0.5986625393
C     1.0243469798     3.8424776701     0.0104519659
C     0.8246378476     3.5997378826     1.4547281802
C     -1.2560872771     3.7455303464     0.4130594966
C     -0.5921976914     3.4461355499     1.672997514
C     -2.1973968931     2.881888479     -0.1143435468
C     -0.51438325     3.1053870625     -1.7548867388
C     -1.8146797045     2.5670445011     -1.5187892988
C     0.5065447017     2.3215064879     -2.3829339138
C     2.0444376582     2.9695205452     -0.4870733113
C     1.8551297093     2.2762148869     -1.7454888663
C     1.7083244822     2.5892418753     1.813762246
C     2.5731148632     2.2835870619     0.6479704679
C     1.2850318661     1.5059341136     2.6853323752
C     -1.0536260686     2.3831777798     2.4440606435
C     -0.1089250155     1.4467727277     3.022184885
C     -2.7986235876     1.8372510767     0.7155450054
C     -2.2112631244     1.6203048243     2.018400137
C     -3.3955034803     0.7518382531     0.06131992
C     -2.2396715282     1.3627180786     -2.116527102
C     -3.1980411359     0.5523581236     -1.3926545349
C     0.0518500654     1.1642767518     -3.0791784752
C     -1.3069741529     0.6983093279     -2.9673188982
C     0.8947082381     0.0030040769     -3.2472224943
C     2.6452719833     1.1278534558     -1.9254958318
C     2.1984672481     0.0160526577     -2.7677288999
C     3.2094319953     1.0286778965     0.5202794517
C     3.4119655996     0.5492882946     -0.8216877189
C     1.9970968526     0.2854291528     2.5989357246
C     3.0129884118     0.0641471904     1.5656798535
C     1.3709316926     -0.9748380346     2.9002244238
C     -0.7689254178     0.1809578743     3.1540953553
C     -2.0743046673     0.2901124654     2.5271592499
C     -0.0451599777     -1.0424391574     3.1262139423
C     -3.4540370429     -0.5562777628     0.676197727
C     -2.6944021646     -0.8286448533     1.8742362644
C     -3.2659906426     -0.8126959765     -1.6391059812
C     -3.4568393992     -1.5083201288     -0.3786686765
C     -1.2897069319     -0.7586377763     -3.0607421697
C     0.0838058103     -1.1918035072     -3.1153946776
C     -2.2297876679     -1.5013954422     -2.364828745
C     0.5335755717     -2.3249514093     -2.3725603203
C     2.7193449095     -1.1863566641     -2.2347132222
C     3.5042755761     -0.8423223241     -1.0474618614
C     1.9140233173     -2.3027945157     -1.959029722
C     3.0358658819     -1.332980625     1.2806463324
C     2.0467008988     -1.991954114     2.1228965479
C     3.2412762586     -1.7850462695     -0.0404567789
C     2.3070548351     -2.7778955426     -0.6193549255
C     1.3285979666     -3.0713364548     1.6249069448
C     1.3982419705     -3.4045651125     0.1829168983
C     -0.7461750433     -2.2135260096     2.6556962926
C     -2.0558407845     -2.0949799163     1.9889579554
C     -0.0289728971     -3.2291164168     2.0064900626
C     -2.6334607346     -2.6470374722     -0.3483500198
C     -1.8061502824     -2.6507292307     -1.5689386125
C     -0.4453650878     -3.0443294171     -1.5331575053
C     0.0236101516     -3.6389473731     -0.2887232783
C     -2.0676589251     -3.0290266194     0.8816011761
C     -0.8006292618     -3.6619383634     0.8445315273


