60

 C     -4.3029309266     0.3145800586     -1.1024051091
C     -3.9956348512     1.4271509531     -0.3445250082
C     -2.9498141803     2.2072403512     -1.0388639867
C     -3.4811404247     0.3979800879     -2.3337153483
C     -2.5857162077     1.5470782787     -2.2338504638
C     -2.9458388931     -0.8390664045     -2.5745264837
C     -4.1301012143     -1.0193057751     -0.5399565212
C     -3.3155661135     -1.7522885261     -1.4702617261
C     -3.837171628     -1.1463405556     0.8181272575
C     -3.6461101798     1.3406175786     1.0426946229
C     -3.7322316766     0.0613942417     1.6556610963
C     -1.998711332     2.6108872423     -0.0732923728
C     -2.4479697865     2.1305033203     1.2413311511
C     -0.6288906395     2.6724299137     -0.4167894925
C     -1.2071846586     1.4205050111     -2.5462863121
C     -0.2722005701     2.2173560691     -1.7541260727
C     -1.5595956435     -1.0028934136     -2.8799967372
C     -0.7026886378     0.1330424266     -3.0321830874
C     -2.1397691633     -2.4065284051     -1.0871385782
C     -1.0872552488     -2.0647407364     -2.0550508972
C     -2.7479854112     -2.044824655     1.2387953875
C     -1.7880945025     -2.5641596311     0.3057445153
C     -2.8105849644     -0.2104615975     2.682239116
C     -2.2528808085     -1.5667325751     2.4723083017
C     -1.4698141784     1.8068523305     2.2055147877
C     -1.7443871409     0.6336256882     3.0125445958
C     0.3755788421     2.6391592135     0.6632320753
C     -0.0761213577     2.1928196685     1.9672712317
C     1.7880945025     2.5641596311     0.3057445153
C     1.0872552488     2.0647407364     -2.0550508972
C     2.1397691633     2.4065284051     -1.0871385782
C     0.7026886378     -0.1330424266     -3.0321830874
C     1.5595956435     1.0028934136     -2.8799967372
C     0.2722005701     -2.2173560691     -1.7541260727
C     1.2071846586     -1.4205050111     -2.5462863121
C     -0.3755788421     -2.6391592135     0.6632320753
C     0.6288906395     -2.6724299137     -0.4167894925
C     -0.9108723696     -1.5826858355     2.8154340555
C     -0.6278512431     -0.2411198251     3.3620700028
C     0.0761213577     -2.1928196685     1.9672712317
C     0.9108723696     1.5826858355     2.8154340555
C     0.6278512431     0.2411198251     3.3620700028
C     2.7479854112     2.044824655     1.2387953875
C     2.2528808085     1.5667325751     2.4723083017
C     3.837171628     1.1463405556     0.8181272575
C     3.3155661135     1.7522885261     -1.4702617261
C     2.9458388931     0.8390664045     -2.5745264837
C     4.1301012143     1.0193057751     -0.5399565212
C     2.5857162077     -1.5470782787     -2.2338504638
C     3.4811404247     -0.3979800879     -2.3337153483
C     4.3029309266     -0.3145800586     -1.1024051091
C     1.998711332     -2.6108872423     -0.0732923728
C     2.9498141803     -2.2072403512     -1.0388639867
C     3.9956348512     -1.4271509531     -0.3445250082
C     1.4698141784     -1.8068523305     2.2055147877
C     1.7443871409     -0.6336256882     3.0125445958
C     2.8105849644     0.2104615975     2.682239116
C     3.7322316766     -0.0613942417     1.6556610963
C     2.4479697865     -2.1305033203     1.2413311511
C     3.6461101798     -1.3406175786     1.0426946229


