60

 C     1.0966664814     -4.2536198207     -0.5904603072
C     0.7796872649     -4.0617837639     0.816287481
C     -0.570452258     -3.713011045     0.9011437888
C     -0.0533780437     -3.8627576108     -1.3736544129
C     -1.1185650023     -3.6387881595     -0.4901341586
C     0.315555984     -2.7958619363     -2.2887844065
C     2.132571219     -3.3826565458     -0.9073639831
C     1.7298615634     -2.5738549602     -2.0547383239
C     1.7552489659     -3.1273227709     1.3660607496
C     2.6294972502     -2.7141757365     0.286285458
C     1.3389180041     -2.1578800997     2.2926849539
C     -1.022069062     -2.7341684625     1.8780409818
C     -0.0406901825     -1.9961234008     2.6288176787
C     -2.2313349668     -2.1072797652     1.6162423943
C     -2.1184511621     -2.6988697068     -0.8141063637
C     -2.9037114416     -2.2455666752     0.3016288096
C     -0.5494400568     -1.6917404746     -2.509481673
C     -1.8921130153     -1.7713972976     -1.9349330079
C     0.0445243673     -0.3533226078     -2.7620589132
C     2.2394956968     -1.3096011124     -2.1375123551
C     1.4406191187     -0.2144833009     -2.6334820454
C     3.1283717679     -1.3826017873     0.1967379254
C     3.1116537169     -0.7710120028     -1.0970290847
C     1.9796494423     -0.8575818757     2.3295528443
C     2.9372683623     -0.4762474669     1.3465974826
C     -0.2502377782     -0.5883737162     2.9032957058
C     1.019425041     0.0906589171     2.7995410096
C     -2.5186587838     -0.754513765     2.1000200002
C     -1.4480521298     0.0909843846     2.5954318189
C     -3.7494311867     -1.1633554776     0.1569476445
C     -3.5269152391     -0.230038107     1.2920831903
C     -2.6955194254     -0.6040774602     -1.9953344097
C     -3.7140264645     -0.3891194572     -1.0174680913
C     -0.7466811485     0.8752965435     -2.6129098765
C     -2.1168262084     0.7007104123     -2.3272769429
C     -0.1028146237     2.178406214     -2.2903421308
C     2.05515333     1.0133847031     -2.1818246386
C     3.1103891174     0.6439524211     -1.2539047769
C     1.3568270249     2.2444666307     -2.0736211636
C     3.1285437741     0.9089807671     1.1856712751
C     3.3716493062     1.4776688775     -0.1574360763
C     1.1103583782     1.4771337683     2.5304348706
C     2.3389540718     1.8778982503     1.8997423143
C     -1.4059025588     1.5164778672     2.216779585
C     -0.1301227348     2.2467315105     2.309215125
C     -3.4413640154     1.0930691295     0.8034599046
C     -3.6561121127     0.9962157899     -0.6182844369
C     -2.8196983077     1.6905246975     -1.5248868292
C     -2.4409252271     1.997938388     1.3040127465
C     -0.893570949     3.1772489524     -1.6328687114
C     -2.1548848056     2.7973600447     -1.0606337195
C     -2.1034609452     3.057271657     0.3963807297
C     -0.001765033     3.4930679361     1.6021721563
C     -0.286749162     4.055355213     -0.6732944513
C     -0.977962179     3.8271220687     0.6195743725
C     1.9343736342     3.2222878549     -1.1683727147
C     2.9051460207     2.7865249482     -0.2018552252
C     2.3702598292     3.095745218     1.1365782315
C     1.0553842673     4.0993490148     -0.447983416
C     1.2658328096     3.8893539893     1.0206153182


