60

 C     0.9132514496     4.4588875455     1.2093257687
C     0.9281394939     4.6363327678     -0.1561846566
C     -0.3960781394     4.4002672214     -0.7210504637
C     -0.4358263837     4.0251589816     1.5784086529
C     -1.2616896409     3.9972884369     0.3566040492
C     -0.2871833831     2.8184637767     2.2612802327
C     1.86277181     3.4084671933     1.5297861856
C     1.15445457     2.4380735815     2.251699284
C     1.8940349441     3.745135206     -0.7877082515
C     2.5006416676     2.9713083906     0.2680660887
C     -0.2069113989     3.5227517252     -1.8131087111
C     1.2197750652     3.0563238294     -1.812964202
C     -1.1975437579     2.587314807     -2.091676117
C     -2.1622648045     2.9196801763     0.1661077879
C     -2.2593123898     2.3712541639     -1.1613530315
C     -1.2552674157     1.7684847738     2.1994219724
C     -2.3323158696     1.928320599     1.2424702582
C     -0.8490168961     0.4372746407     2.6456452603
C     1.5134801813     1.0682750061     2.1884132078
C     0.5758066681     0.0498603732     2.6055269214
C     2.7372627698     1.6146180522     0.0661216487
C     2.5355777441     0.726016992     1.2196014707
C     1.5073060075     1.6879231774     -2.0933892462
C     2.4463001054     0.9976853935     -1.2352673806
C     -0.8744162283     1.3038817314     -2.6984761815
C     0.4829192197     0.8684823511     -2.7462382492
C     -2.7611984676     1.0306397349     -1.4174401853
C     -1.9119706651     0.373753812     -2.4008353074
C     -3.1222958901     0.7820161957     0.9705501321
C     -3.3322491619     0.2990547871     -0.409958726
C     -1.7947163644     -0.5994123898     2.5316216964
C     -2.962761496     -0.3611952813     1.7457510875
C     -1.4163490839     -1.9936417738     2.349787734
C     0.9533251632     -1.3445792575     2.4816259136
C     -0.0706147492     -2.4120169418     2.3869623702
C     2.8458499479     -0.6061983983     1.0749124596
C     2.2245734431     -1.6132822917     1.8690498913
C     2.6457617534     -0.4283950218     -1.389044993
C     3.1452839013     -1.1723510363     -0.2548112603
C     0.6765115804     -0.5253711148     -2.8489194083
C     1.8536297365     -1.1671801756     -2.3127614104
C     -1.6955226832     -1.0342921261     -2.3721360071
C     -0.4045680577     -1.4680679103     -2.7855078976
C     -3.2487108389     -1.1544519011     -0.4215509948
C     -3.1920606457     -1.5497020046     0.9349122351
C     -2.3439247616     -2.5724875783     1.3737306459
C     -2.4397672379     -1.8532045896     -1.399967383
C     -1.8671757817     -3.4825945691     0.4129660222
C     -1.8744765367     -3.0958437807     -1.0045641956
C     0.2366208762     -3.6571845522     1.6835557496
C     -0.6720867544     -4.1502426415     0.7044264555
C     2.4768810264     -2.8524770139     1.1882327656
C     2.9961002806     -2.5475206984     -0.1685386318
C     1.5455294336     -3.8493862556     1.1097462083
C     1.5726731968     -2.5796822943     -2.1454966638
C     0.1419090075     -2.7469777836     -2.384914114
C     -0.6281683803     -3.5943057536     -1.5785132709
C     0.0597994443     -4.3538117191     -0.5599684207
C     2.1983273685     -3.2974791422     -1.1036534049
C     1.4119459085     -4.2296594263     -0.3303113903


