60

 C     -1.7046020512     -3.8176045121     -1.3936816186
C     -1.3080229697     -4.0695697973     -0.0430764194
C     -2.0037498547     -3.1537007155     0.8253392098
C     -2.6357455568     -2.7473688818     -1.4140184483
C     -2.9407850306     -2.4218740461     -0.0355544577
C     -2.1097668784     -1.6999564348     -2.2236155424
C     -0.5303131704     -3.4367165904     -2.1175089476
C     -0.7552609079     -2.124094989     -2.631146218
C     0.1093734019     -4.163897953     0.0075123299
C     0.6138915201     -3.6632511915     -1.2911658167
C     0.7566864105     -3.7268709668     1.161524693
C     -1.2969318768     -2.4390144937     1.85525867
C     0.058437038     -2.8078621542     2.0956864551
C     -1.6792176753     -1.0641590883     2.2047201296
C     -3.2264374629     -1.1207521872     0.265489189
C     -2.7797378068     -0.5054654415     1.500311016
C     -2.3887883318     -0.3319441448     -1.9165440775
C     -3.1649384756     -0.0744770906     -0.7543608618
C     -1.4565019638     0.6999264965     -2.3480286388
C     0.2707100181     -1.1640467011     -2.6383892645
C     -0.1352336633     0.2412241886     -2.7637360795
C     1.7246134141     -2.7707990973     -1.3286711093
C     1.5834722735     -1.5102694988     -2.0578551893
C     2.0981690885     -3.3224535083     1.0699486691
C     2.5971880774     -2.8068751789     -0.160867042
C     1.026830041     -1.8692486739     2.5981297788
C     2.3057420751     -2.2690105632     2.0725981101
C     -0.6782697233     -0.1211910168     2.7371723062
C     0.7315162077     -0.4812820498     2.7744785102
C     -0.9721235819     1.2565711573     2.7475494135
C     -2.9319307829     0.8986060299     1.3408031687
C     -3.0755353637     1.178800142     -0.082949917
C     -2.1864289416     1.7702091797     2.122192916
C     -1.645862201     2.0759813829     -1.8801057803
C     -2.4626557864     2.3152079851     -0.6742285367
C     -0.6069322304     3.0277315071     -2.1704307595
C     0.9068574957     1.1918762323     -2.7920626572
C     0.6343809568     2.5562157586     -2.6291546761
C     2.4731693652     -0.4102270549     -1.7248847054
C     2.1704605273     0.8851740268     -2.1374467195
C     3.4022564147     -1.6621415414     0.1727860445
C     3.1859004475     -1.3319766811     1.6006945848
C     3.2932671898     -0.4860050666     -0.5300746719
C     1.7358078626     0.5254214795     2.3954900063
C     2.9058766323     0.055315574     1.7164572289
C     3.1954900255     0.6365479439     0.4425520853
C     0.0513619894     2.2753458148     2.5817457127
C     1.350854206     1.9059465875     2.1380578953
C     -1.9487309845     3.0624420292     1.6296945227
C     -2.0928680932     3.3761218177     0.2543787844
C     -0.5855543351     3.4425229036     2.044505408
C     -0.2941524884     4.1010693745     -1.2220594609
C     -0.984889271     4.2541147975     -0.0626099663
C     0.0030553964     4.2014974042     1.0658324566
C     1.7129831336     3.1288766028     -1.7868872685
C     2.5253644319     2.0621437912     -1.3498955942
C     2.7469449163     1.9033030708     0.0656455426
C     1.9657280849     2.683906336     1.0354155501
C     1.1594189903     4.0163678746     -0.8960771668
C     1.2861602276     3.8456395221     0.5351168245


