60

 C     -0.6667495469     -3.8597832578     1.4664025227
C     0.6832938756     -3.646692346     1.6069837963
C     1.3456637682     -3.8567926713     0.300993269
C     -0.8947676329     -4.150131488     0.0184604922
C     0.3385030366     -3.9333518517     -0.6991730667
C     -2.0176191591     -3.4746003721     -0.349067643
C     -1.5969925387     -2.8562433782     1.8805679302
C     -2.5817875261     -2.7699113664     0.8236217113
C     -1.1338975598     -1.634952533     2.443567841
C     1.2051162378     -2.44453184     2.1684218959
C     0.3230095071     -1.4320240006     2.6137792838
C     2.4122089047     -2.9643121579     0.2075005167
C     2.3952350948     -2.0817970367     1.3737240127
C     2.6727435043     -2.4002083643     -1.0638837927
C     0.3677381484     -2.9697578068     -1.8055071062
C     1.5901667291     -2.3151773175     -2.033357227
C     -2.0504856115     -2.5576575624     -1.4675093522
C     -0.8675443808     -2.2302610743     -2.1748487181
C     -3.1313282003     -1.5771422455     0.4041870442
C     -2.9783386705     -1.5193520993     -1.0637577548
C     -1.9744110069     -0.4472952701     2.2473538533
C     -2.9520388173     -0.3738332006     1.1710890556
C     -1.4701965163     0.7727100826     2.7537228761
C     0.8721499253     -0.0681658175     2.7125101978
C     -0.0291668635     0.9631428218     2.9993708924
C     2.8555899264     -0.7623282299     1.2879861039
C     2.1695004016     0.2723162474     2.0804622082
C     3.376491625     -1.1937927222     -1.0951278825
C     3.5043096707     -0.3803426752     0.0432187674
C     1.6731567651     -0.9648573438     -2.641045707
C     2.8370378958     -0.348674426     -2.1703433336
C     -0.7765595019     -0.859803247     -2.7499458691
C     0.5094122236     -0.1764053993     -2.8971136394
C     -2.9722972201     -0.3205323433     -1.691291678
C     -1.925513667     -0.0365276905     -2.6540160918
C     -3.2128742067     0.897294498     0.5019029292
C     -3.282996364     0.9046196261     -0.9453832365
C     -1.9807877166     1.9999299727     2.3049563105
C     -2.7342013654     2.0968157     1.1073478195
C     0.2774970111     2.3525749849     2.721354329
C     -0.9141111152     2.9946301766     2.296589714
C     2.4347885256     1.624054115     1.7740163917
C     1.4922072241     2.6737458935     2.080839222
C     3.420528125     0.9976603392     -0.4105611414
C     2.8723443702     1.0006518558     -1.7651687652
C     3.0434074021     1.9769042423     0.4716051848
C     0.6264650658     1.2836298736     -2.7418160275
C     1.8067477738     1.8768193895     -2.1156983714
C     -1.8074084413     1.3775006814     -2.6655857746
C     -2.7122547035     1.9564131645     -1.6655094512
C     -0.5877117638     2.0479412756     -2.649194501
C     -2.1335424089     3.189259774     0.3299615281
C     -0.9790182948     3.7058763624     1.0748723133
C     -2.0424887341     3.0486298896     -1.0499662994
C     -0.7328408914     3.1863372651     -1.7255559265
C     1.4453847405     3.5905770578     0.9814428858
C     2.3552345236     3.1124830051     -0.0439590016
C     1.6577662577     3.0402274425     -1.2681221699
C     0.2263820219     3.9990830023     0.3905269511
C     0.3498503439     3.6654103957     -1.0368305211


