60

 C     -1.8701093745     -4.110366577     -0.8235906638
C     -0.6437101656     -3.9864346878     -1.6214361096
C     0.4279088285     -4.2500389968     -0.7827577212
C     -1.4646743781     -4.1394608498     0.5944357832
C     -0.0905521738     -4.2839321795     0.6284536437
C     -2.0184713089     -2.9968181718     1.2758018706
C     -2.5777728011     -2.9436881806     -0.9933620982
C     -2.8558889759     -2.3237197936     0.2964940804
C     -0.6559449715     -2.7099282893     -2.3202136446
C     -1.9172546525     -2.0890572248     -1.9981536167
C     0.5059622198     -1.8853020628     -2.396674972
C     1.5902805618     -3.4558823209     -0.79756464
C     1.7245521691     -2.3591102212     -1.7258789924
C     0.7637615947     -3.4468104012     1.4094760987
C     1.9413320022     -3.1995849283     0.5967809392
C     -1.2055465884     -2.1810615244     2.1427100794
C     0.2507651459     -2.376422158     2.2073836822
C     -1.6906446818     -0.8675101383     2.3630006699
C     -3.0888694803     -0.9586592146     0.3468482526
C     -2.7374371393     -0.3132081781     1.5728657909
C     -2.0731504043     -0.7099958238     -1.9483980714
C     -2.9455054648     -0.1564076604     -0.889678591
C     0.3159348431     -0.446250757     -2.5863132028
C     -1.0047702296     0.1375246344     -2.4691972162
C     1.4652114162     0.4498033051     -2.3977262562
C     2.7479503899     -1.4197082235     -1.4077294414
C     2.6426241991     -0.0273415723     -1.7648639086
C     2.797724147     -2.1783473776     0.9228312956
C     3.4008437159     -1.4641795223     -0.1457591772
C     1.1277941863     -1.2109175563     2.4908465762
C     2.4365044881     -1.2072123006     1.9504988768
C     -0.8607168836     0.2444576902     2.8192988617
C     0.5456068867     0.1073870149     2.8341604718
C     -2.6492995104     1.1074975753     1.6503119644
C     -1.5014415402     1.4806667195     2.4644515121
C     -3.0209393535     1.2111475667     -0.7754936637
C     -3.0313402916     1.8679303133     0.5456770129
C     -1.1936424791     1.5823818404     -2.4207327502
C     -2.3091173328     2.106057771     -1.6860623165
C     1.253475199     1.8514017454     -2.3377805952
C     -0.024300886     2.4292842837     -2.5208339519
C     2.0473132898     2.7129355182     -1.4046576388
C     3.3269110888     0.780016855     -0.7395196146
C     3.6748449848     -0.1231133275     0.2893620996
C     3.1023493188     0.0411431809     1.5863487105
C     2.8633287945     2.0735424717     -0.4092376744
C     1.2876500889     1.3173372314     2.5991668773
C     2.5378137504     1.2711744042     1.9089083106
C     2.578981822     2.3770737068     0.9686181514
C     -0.7692537523     2.6663515494     2.1671701748
C     0.6476634512     2.5769503574     2.2587794257
C     1.4984124937     3.265073305     1.3009305519
C     -2.4701758024     3.1443600292     0.3822552308
C     -2.1975002008     3.3655930499     -1.0103264661
C     -1.3342928284     3.5946960351     1.1821688347
C     0.0136531139     3.7138670162     -1.8528409528
C     1.2733823394     3.8053701234     -1.0800802627
C     0.9219328374     4.0771861233     0.3003776842
C     -1.0236426427     4.1473900475     -1.0730627038
C     -0.4865027726     4.3148686557     0.3235133001


