60

 C     1.0032858046     -4.0145527639     0.6790962631
C     -0.1303802311     -4.2222025175     -0.0807977698
C     -1.2955359821     -3.8240726016     0.7062780896
C     0.5716757406     -3.3260628835     1.9196754628
C     -0.8374355934     -3.1325426032     1.8806070787
C     1.4359611984     -2.2629284463     2.1468704307
C     2.1305353049     -3.3223749704     0.1506848322
C     2.5341975984     -2.3519210623     1.1641353497
C     2.1054899326     -2.8993921514     -1.1940707071
C     -0.2618446566     -3.6117468177     -1.3873573115
C     0.8465393652     -2.96616179     -1.9327010014
C     -2.2054143865     -3.1953341973     -0.1479943409
C     -1.5563270327     -2.9586306431     -1.4494979651
C     -3.0249687152     -2.2040832143     0.3981166935
C     -1.3854517476     -1.8312296286     2.2216381188
C     -2.6182713328     -1.5032584629     1.6029604378
C     0.948724319     -0.9659305313     2.5701455133
C     -0.4799343179     -0.7340160489     2.6182379467
C     1.8738369764     0.1502258746     2.4143801341
C     3.2125258535     -1.2157142516     0.8076404316
C     2.9988857088     0.0193721262     1.5326687725
C     2.7562895147     -1.6585064345     -1.5553009413
C     3.4247833141     -0.8912017359     -0.5963037301
C     0.6755244266     -1.6965197165     -2.6309218911
C     1.9129439513     -0.9711348945     -2.5116442714
C     -1.7343768704     -1.705540327     -2.1033203136
C     -0.5715494438     -1.0141685438     -2.6803112734
C     -3.5395758653     -1.2327876699     -0.4836227387
C     -2.8491247942     -0.9005722141     -1.6692501179
C     -3.0733877031     -0.1198606608     1.4745537913
C     -3.7554809737     -0.0036304815     0.2477271866
C     -0.9820770327     0.6606419731     2.595504689
C     -2.2933051929     0.9731827441     1.9748868723
C     1.3755319492     1.4645589276     2.6226656552
C     -0.054495762     1.7108726181     2.7109778428
C     1.9677889918     2.5722393093     1.9675220689
C     3.3528662279     1.1009580317     0.6555504183
C     3.462509109     0.5481397925     -0.6896322507
C     2.8203648297     2.3777455443     0.8550349783
C     1.9144682445     0.4157078213     -2.5801402303
C     2.7833319189     1.2024263297     -1.720483698
C     -0.5654687379     0.459560623     -2.7742792059
C     0.686186621     1.1263769263     -2.7857687888
C     -2.8383216772     0.5615734657     -1.7843144893
C     -3.5117891984     1.0937407349     -0.6063899568
C     -1.730317293     1.2473528138     -2.3286032222
C     -2.489195213     2.2274565113     1.3305150168
C     -3.0691326747     2.2667223931     -0.0123321072
C     -0.306056468     3.0400658232     2.1311924644
C     0.9278216186     3.5195785612     1.6152676756
C     -1.4683271078     3.2640977898     1.3863061809
C     2.2351581939     3.1284966563     -0.2633163238
C     2.1440071612     2.4822317213     -1.4930391162
C     0.8698120352     2.4664636562     -2.2228997784
C     1.0788541112     3.8696326117     0.2434961187
C     -1.5374316959     2.6242535177     -1.8913204241
C     -2.2566210422     3.1241657972     -0.7908722691
C     -1.3421648083     3.8456946288     0.0870767117
C     -0.1971213218     3.2134082263     -1.7981105173
C     -0.0890149492     3.9791343139     -0.5468167746


