60

 C     -4.7910656374     -0.473948143     0.3648164963
C     -4.4204862963     -0.5614405225     1.6882630108
C     -3.7981599366     0.7261158529     2.0725401749
C     -4.4765993048     0.8460066813     -0.1664840435
C     -3.8604743428     1.6188399436     0.928069383
C     -3.761275406     0.6567795297     -1.3452580209
C     -4.1172023618     -1.4949985342     -0.4259371308
C     -3.53876479     -0.8331945751     -1.5209439856
C     -3.4518231165     -1.6157257907     1.8169097212
C     -3.22772089     -2.1942531462     0.460939071
C     -2.5452375194     0.4200283661     2.6141942349
C     -2.3327469358     -1.0453776887     2.4430825889
C     -1.4126101139     1.2717189667     2.4060208987
C     -2.7364160068     2.38266253     0.6305305574
C     -1.5729136286     2.3376527603     1.4773784688
C     -2.6949149545     1.5597725465     -1.7270587991
C     -2.2238477593     2.4898515719     -0.7456193873
C     -1.7666752652     1.1030567246     -2.6808504883
C     -2.3243596321     -1.2870584493     -2.0713147701
C     -1.6500539029     -0.3585898793     -2.9404902489
C     -1.9196625542     -2.5120207245     0.0499504871
C     -1.503317295     -2.2392775917     -1.3259933316
C     -1.0291150789     -1.5296186053     2.1947452841
C     -0.8602688331     -2.465332488     1.0750744425
C     -0.0911959923     0.7329703396     2.5935637885
C     0.0911959923     -0.7329703396     2.5935637885
C     1.0291150789     1.5296186053     2.1947452841
C     -0.434496306     2.7639306867     0.6996111232
C     -0.8320793904     2.8071809387     -0.6954255707
C     0.8602688331     2.465332488     1.0750744425
C     -0.4421919292     1.6310069398     -2.7745262589
C     0.1010430454     2.4101115676     -1.7016468769
C     -0.3777193148     -0.6191345442     -3.394140619
C     0.3777193148     0.6191345442     -3.394140619
C     -0.1010430454     -2.4101115676     -1.7016468769
C     0.4421919292     -1.6310069398     -2.7745262589
C     0.434496306     -2.7639306867     0.6996111232
C     0.8320793904     -2.8071809387     -0.6954255707
C     1.4126101139     -1.2717189667     2.4060208987
C     1.5729136286     -2.3376527603     1.4773784688
C     2.3327469358     1.0453776887     2.4430825889
C     2.5452375194     -0.4200283661     2.6141942349
C     3.4518231165     1.6157257907     1.8169097212
C     1.9196625542     2.5120207245     0.0499504871
C     1.503317295     2.2392775917     -1.3259933316
C     3.22772089     2.1942531462     0.460939071
C     1.6500539029     0.3585898793     -2.9404902489
C     1.7666752652     -1.1030567246     -2.6808504883
C     2.3243596321     1.2870584493     -2.0713147701
C     2.2238477593     -2.4898515719     -0.7456193873
C     2.7364160068     -2.38266253     0.6305305574
C     2.6949149545     -1.5597725465     -1.7270587991
C     3.7981599366     -0.7261158529     2.0725401749
C     4.4204862963     0.5614405225     1.6882630108
C     3.8604743428     -1.6188399436     0.928069383
C     4.1172023618     1.4949985342     -0.4259371308
C     3.53876479     0.8331945751     -1.5209439856
C     3.761275406     -0.6567795297     -1.3452580209
C     4.7910656374     0.473948143     0.3648164963
C     4.4765993048     -0.8460066813     -0.1664840435


