60

 C     -0.3810787076     -4.8392990319     -0.4064962602
C     -1.1464442085     -4.3244703903     0.7111402602
C     -2.258964819     -3.6370822466     0.2073722063
C     -0.8367508182     -4.0772579721     -1.5705093649
C     -2.0506998494     -3.4666188379     -1.2582120828
C     0.2464408042     -3.2598112386     -2.0812756968
C     0.9412942618     -4.4412957742     -0.1886684256
C     1.4236222838     -3.6422211153     -1.3091553876
C     -0.2523105822     -3.6409060018     1.6486646623
C     1.0901474281     -3.8741518181     1.1521163534
C     -0.5983338685     -2.3660075061     2.1974963344
C     -2.6292637036     -2.3946817679     0.7345079501
C     -1.9024760261     -1.8075019416     1.8364020859
C     -2.2813270201     -2.1104835379     -1.5635941056
C     -2.8975401056     -1.5126981844     -0.389564436
C     0.0351542365     -1.8816875741     -2.417090324
C     -1.299817824     -1.3069639863     -2.2327407161
C     1.1694206209     -0.9493075768     -2.2965416841
C     2.4329507979     -2.7267137068     -1.0623915317
C     2.3497185638     -1.398631209     -1.658336251
C     2.0900892342     -2.932924186     1.3527722777
C     2.9574920484     -2.5752859321     0.2689973692
C     0.4775970347     -1.3894632505     2.4986907729
C     1.7976756475     -1.7106754393     2.1064230625
C     0.1864539596     0.0413128066     2.7075812732
C     -2.1292162973     -0.4328728329     2.0340763651
C     -1.1701539046     0.4581042445     2.6286600184
C     -2.9888782912     -0.1405273441     -0.2499305922
C     -2.8508204279     0.372878619     1.0764044525
C     -1.4746061409     0.1322466681     -2.1903426019
C     -2.4907798507     0.7030270827     -1.3223995992
C     0.9639198328     0.4990851604     -2.3917536382
C     -0.3810811497     1.00934718     -2.5772364844
C     1.9427660822     1.4105808531     -1.8151586893
C     3.0484743033     -0.4870913427     -0.7773536966
C     3.2743884675     -1.1954053519     0.4305953715
C     2.6680409869     -0.6658337477     1.6125202638
C     2.7756313143     0.8828867501     -0.7516444322
C     1.1735335366     1.0813392722     2.4338409017
C     2.3526368011     0.7005061975     1.6760957077
C     2.7316431715     1.5417661402     0.5443504036
C     0.76563464     2.4620392939     2.383000149
C     -1.5657579751     1.8284624625     2.3440536109
C     -2.6057446012     1.761132608     1.322822228
C     -0.6478228269     2.8451601771     2.2959952354
C     -2.5513763655     2.1074205104     -1.0941544755
C     -2.6030592419     2.6645562974     0.2772866424
C     -0.6069426569     2.4261979251     -2.5364940859
C     -1.7572154991     2.9629318873     -1.840518136
C     1.6776134048     2.8116849732     -1.7765959527
C     0.4452334605     3.3199679893     -2.2537599804
C     2.3660544075     2.9072643326     0.5777758031
C     1.4642869138     3.3833117499     1.5980637932
C     2.0094587906     3.5753493451     -0.6084420738
C     -0.791711773     3.9687138976     1.3526065893
C     -1.7681177163     3.8661920589     0.3176554123
C     -1.3663453092     4.130670068     -1.0380473709
C     -0.0319736024     4.4117019271     -1.3521378905
C     0.5396090157     4.3708616732     1.0119554122
C     0.9196289125     4.5511702937     -0.3293772023


