60

 C     2.3574942382     -1.3185806059     2.6447219124
C     2.9676300821     -1.2786963602     1.3809321369
C     2.3937399815     -2.3937399815     0.6138992212
C     1.3185806059     -2.3574942382     2.6447219124
C     1.2786963602     -2.9676300821     1.3809321369
C     0.1686000269     -1.8464006277     3.2889512159
C     1.8464006277     -0.1686000269     3.2889512159
C     0.4873917856     -0.4873917856     3.7603582935
C     2.1113520856     1.0753726612     2.6934981242
C     3.2233840449     -0.0229852826     0.7356764255
C     2.8337198435     1.1483606801     1.4581895241
C     3.2233840449     0.0229852826     -0.7356764255
C     2.3127386297     -2.3127386297     -0.742948647
C     2.8337198435     -1.1483606801     -1.4581895241
C     1.1483606801     -2.8337198435     -1.4581895241
C     0.0229852826     -3.2233840449     0.7356764255
C     -0.0229852826     -3.2233840449     -0.7356764255
C     -1.0753726612     -2.1113520856     2.6934981242
C     -1.1483606801     -2.8337198435     1.4581895241
C     -2.1113520856     -1.0753726612     2.6934981242
C     -0.4873917856     0.4873917856     3.7603582935
C     -1.8464006277     0.1686000269     3.2889512159
C     1.0753726612     2.1113520856     2.6934981242
C     -0.1686000269     1.8464006277     3.2889512159
C     2.3127386297     2.3127386297     0.742948647
C     1.1483606801     2.8337198435     1.4581895241
C     2.9676300821     1.2786963602     -1.3809321369
C     2.3937399815     2.3937399815     -0.6138992212
C     2.3574942382     1.3185806059     -2.6447219124
C     2.1113520856     -1.0753726612     -2.6934981242
C     1.0753726612     -2.1113520856     -2.6934981242
C     1.8464006277     0.1686000269     -3.2889512159
C     -0.1686000269     -1.8464006277     -3.2889512159
C     -1.2786963602     -2.9676300821     -1.3809321369
C     -1.3185806059     -2.3574942382     -2.6447219124
C     -2.3127386297     -2.3127386297     0.742948647
C     -2.8337198435     -1.1483606801     1.4581895241
C     -2.3937399815     -2.3937399815     -0.6138992212
C     -3.2233840449     0.0229852826     0.7356764255
C     -2.3574942382     1.3185806059     2.6447219124
C     -1.3185806059     2.3574942382     2.6447219124
C     -2.9676300821     1.2786963602     1.3809321369
C     -0.0229852826     3.2233840449     0.7356764255
C     -1.2786963602     2.9676300821     1.3809321369
C     -2.3937399815     2.3937399815     0.6138992212
C     1.2786963602     2.9676300821     -1.3809321369
C     1.3185806059     2.3574942382     -2.6447219124
C     0.0229852826     3.2233840449     -0.7356764255
C     0.4873917856     0.4873917856     -3.7603582935
C     -0.4873917856     -0.4873917856     -3.7603582935
C     0.1686000269     1.8464006277     -3.2889512159
C     -2.3574942382     -1.3185806059     -2.6447219124
C     -2.9676300821     -1.2786963602     -1.3809321369
C     -3.2233840449     -0.0229852826     -0.7356764255
C     -1.8464006277     -0.1686000269     -3.2889512159
C     -2.3127386297     2.3127386297     -0.742948647
C     -1.1483606801     2.8337198435     -1.4581895241
C     -1.0753726612     2.1113520856     -2.6934981242
C     -2.8337198435     1.1483606801     -1.4581895241
C     -2.1113520856     1.0753726612     -2.6934981242


