60

 C     -0.4478828136     -4.1502600044     -0.8331745447
C     0.4668818163     -4.211467373     0.2115118275
C     1.7435352577     -3.6803197429     -0.2558128098
C     0.2112568507     -3.4532718633     -1.9363306706
C     1.5540293065     -3.1208635916     -1.5529137863
C     -0.6481060074     -2.4377244164     -2.3555042336
C     -1.7492138272     -3.5798129569     -0.6312854754
C     -1.9361333633     -2.5686781506     -1.6524307498
C     -2.153570677     -3.2852823218     0.6895453358
C     0.1683867541     -3.590663504     1.4785671327
C     -1.1344868884     -3.1811436116     1.7294545287
C     2.293532882     -2.8810093286     0.7798775411
C     1.2730608968     -2.696435115     1.8006851806
C     3.1297068201     -1.8371403629     0.429129658
C     2.1115045435     -1.8215576281     -1.8523500913
C     3.1403948704     -1.3877922212     -0.9677900337
C     -0.1255871829     -1.1265366767     -2.7079952492
C     1.2762908293     -0.7936574169     -2.492476085
C     -1.0831586709     -0.0867242669     -2.7443731117
C     -2.7243144894     -1.4146985055     -1.411663557
C     -2.3467404156     -0.2140270227     -2.0807717332
C     -3.0514783233     -2.1910655062     0.8899068958
C     -3.352365844     -1.2645777901     -0.1189708075
C     -1.3506808872     -1.9014941169     2.4226190762
C     -2.6047996891     -1.4191596727     2.0315698313
C     1.0904921928     -1.4016168221     2.4005457725
C     -0.2727753104     -0.9726416919     2.6963860254
C     3.1989918809     -0.6711429461     1.2599859761
C     2.1407853963     -0.4000603579     2.194235309
C     3.5124522419     -0.033550156     -0.9430908454
C     3.6617220804     0.3912084234     0.4291135617
C     1.6455436822     0.6299585563     -2.3866368386
C     2.8146413617     0.9728750036     -1.6447068947
C     -0.7110704416     1.3066913144     -2.7259377275
C     0.6299975613     1.6851835199     -2.527251284
C     -2.7329911997     1.1125002926     -1.6140417779
C     -1.8156655871     2.0566571073     -2.1527880373
C     -3.3968173667     0.0814982477     0.4884235426
C     -2.8316200259     -0.0331246983     1.7902774094
C     -3.1904604654     1.2609022909     -0.2616576253
C     -0.5943912056     0.4499781293     2.7586198133
C     -1.9114096933     0.931095054     2.2961717544
C     1.8141655657     0.9770645296     2.4083751779
C     0.4791754161     1.38177569     2.7050763383
C     3.2426738178     1.7264629431     0.5564952558
C     2.8448289313     2.1726681406     -0.7866135839
C     2.4291218895     2.0642522718     1.6409901106
C     0.8429387313     3.0000674958     -1.9085988476
C     1.9185632116     3.1607589895     -0.9166292778
C     -1.5738752152     3.2987237697     -1.5142211023
C     -0.2299210164     3.793160152     -1.498630788
C     -2.733917907     2.4064815249     0.4759424961
C     -2.0366412783     2.2211074812     1.741876307
C     -2.091950098     3.4732296016     -0.2012193823
C     0.2952169324     2.7675891617     2.2443834182
C     1.4853108583     3.1451599956     1.5129546803
C     1.3524611241     3.8140353887     0.2674314573
C     0.0722437517     4.2833550877     -0.1233521311
C     -0.9570855344     3.1977152901     1.8120274765
C     -1.0507961305     4.0453439863     0.6570402921


