60

 C     4.7349300319     -0.2057961594     -0.1590351957
C     4.1113472085     -1.4063299003     0.0785958114
C     3.38596153     -1.3637753138     1.3548408168
C     4.3385976067     0.7042902241     0.9115047774
C     3.4462483646     0.0001077394     1.820954255
C     3.8212044355     1.8321660624     0.3046013717
C     4.1675782573     0.3263592201     -1.4278894779
C     3.7448497505     1.6210123364     -1.187352739
C     3.3300525002     -1.7821703273     -1.1085983148
C     3.225564534     -0.6086845113     -1.9784342851
C     2.2479373973     -2.5783573278     -0.9298054261
C     2.2231591114     -2.1585365571     1.5288411148
C     1.7611127082     -2.9541908952     0.4192565152
C     1.2101877094     -1.6519258246     2.3963759627
C     2.2373595971     0.6260262675     2.3139672552
C     1.2063737872     -0.2467850908     2.7355917241
C     2.6145548214     2.4623143039     0.7205010936
C     1.8107339147     1.9428106222     1.7787127985
C     2.4766845004     2.0687148219     -1.6058659024
C     1.9486186973     2.8603563744     -0.5004157039
C     1.9203608701     -0.1896787165     -2.4332503379
C     1.5472985208     1.2169484868     -2.298489205
C     1.0901188095     -2.4145000003     -1.765712743
C     0.8374205161     -1.1859186945     -2.4360981233
C     0.4080774525     -3.3122134557     0.2930142639
C     0.0378349513     -3.1328063526     -1.1201919
C     -0.1447235445     -2.0799764965     2.31259612
C     -0.5801732261     -2.9586425128     1.2927499895
C     -0.1698842393     0.1681019845     2.88472209
C     -1.0045896117     -0.9649553896     2.7149591295
C     0.3996536352     2.3350176063     1.818062673
C     -0.596975121     1.483633773     2.4888279889
C     0.6398644121     3.1897824602     -0.474836143
C     -0.101290266     3.1490814975     0.7595534322
C     0.129976863     1.6098599965     -2.2924063012
C     -0.2439632848     2.7567312317     -1.5337073187
C     -0.5706265918     -0.7959642048     -2.6145403932
C     -0.9316689039     0.640608045     -2.5925705841
C     -1.2572880553     -2.9051138549     -1.4831226168
C     -1.576711817     -1.7522358308     -2.3082481105
C     -1.9560000184     -2.8762403254     0.8767327417
C     -2.279724543     -3.0270545639     -0.479056402
C     -2.3610978197     -0.8524115381     2.2843327499
C     -2.8817708838     -1.8550180189     1.4202652074
C     -1.9711780502     1.6510960972     2.2271407411
C     -2.8934956992     0.4953983203     2.1828097043
C     -1.4887394535     3.1935789401     0.396107313
C     -1.5725377664     2.9631505502     -1.0478029751
C     -2.4375140594     2.5975978795     1.2286084808
C     -2.2781129016     1.0121764467     -2.3343577652
C     -2.6150714014     2.2096848823     -1.5801240064
C     -2.922308798     -1.3495824261     -1.9204401258
C     -3.354869793     -2.1269819067     -0.8137188785
C     -3.8269577874     -1.4936009572     0.3784746832
C     -3.2973067172     0.0098241009     -1.9848856653
C     -3.935507608     0.7767880933     1.2873256004
C     -3.6268616041     2.0698833239     0.6450795918
C     -3.7298049486     1.9026055213     -0.7316859967
C     -4.2983553315     -0.1684648452     0.2762804902
C     -4.1485522486     0.522204889     -0.9887443505


