60

 C     0.0856024994     4.1269022585     -0.67465712
C     1.0223619434     4.0228057974     0.3358943206
C     0.3192827372     3.7051241208     1.5944007195
C     -1.2406434318     3.8739218242     -0.0873408598
C     -1.0752927972     3.589221289     1.3166455932
C     -1.9158774292     2.976466022     -0.914808322
C     0.2088887581     3.3300050621     -1.8635769356
C     -1.050577584     2.647445367     -2.0668475335
C     1.3873954165     2.6153839489     -2.0824023595
C     2.1519314228     3.1481836053     0.2061570328
C     2.3979038174     2.5450889078     -1.0364030541
C     1.0177412895     2.6499280376     2.2059532668
C     2.2031878196     2.3284696543     1.402505788
C     0.2921172651     1.5820684871     2.8589314265
C     -1.7921200372     2.4993018835     1.8678159927
C     -1.1199109418     1.5533241302     2.7274241842
C     -2.7578574707     1.9408409116     -0.3363387561
C     -2.7163929336     1.7495048579     1.0762455349
C     -3.0385706076     0.8293784807     -1.1601202995
C     -1.1218210902     1.3777496929     -2.6703903212
C     -2.2838234672     0.594341107     -2.345212059
C     1.337357335     1.3124445748     -2.7280638353
C     0.1156950277     0.6560010823     -3.0217044663
C     2.9909732914     1.2304195053     -1.081489831
C     2.4667451126     0.5551397117     -2.2571932112
C     2.7265592726     1.0166347397     1.3755587446
C     3.2431969861     0.4846159199     0.104972634
C     0.9680086491     0.3312343256     2.9998064885
C     2.1935702715     0.0814625895     2.3315026627
C     0.2437426964     -0.931884385     3.1508696912
C     -1.819739322     0.2760993899     2.6465622744
C     -2.7897680807     0.3860552252     1.6220406776
C     -1.1688570155     -0.9675027133     2.914905099
C     -3.3829743139     -0.4927627724     -0.5921667231
C     -3.163465139     -0.7416103831     0.821033974
C     -2.3112686799     -0.812869906     -2.5892317285
C     -3.0695749739     -1.4659901909     -1.538912217
C     0.1095819972     -0.8292229269     -3.0333926527
C     -1.1325172998     -1.5309570119     -2.7841695736
C     2.479062056     -0.827900334     -2.3387891282
C     1.2796367448     -1.5397989705     -2.7196419883
C     3.3426017791     -0.9488845604     -0.0427340759
C     3.0929147382     -1.5536977172     -1.2865676268
C     2.2822979249     -1.3589935508     2.1341290058
C     1.0954199898     -1.9870348632     2.7021768481
C     2.8605046576     -1.8678567953     0.9912443489
C     0.541988919     -3.1289409045     2.0902495595
C     -1.7137296365     -2.1427599814     2.2935669979
C     -2.683207972     -2.0210805921     1.2012108918
C     -0.8611064344     -3.2273140231     1.9930196342
C     -2.3885326192     -2.6719020851     -1.1688416001
C     -1.1960453506     -2.7690282764     -1.9683471783
C     -2.3464346097     -3.0281090952     0.1929297495
C     -1.2065427789     -3.7228149143     0.6607242261
C     1.2353318955     -2.798364718     -1.9308911008
C     2.349003563     -2.7830364505     -1.0872575948
C     2.2466645603     -3.0352341618     0.3240940431
C     1.0957615066     -3.6092929224     0.819583055
C     -0.0052636977     -3.3484424082     -1.4526584373
C     -0.0311160291     -3.8722744958     -0.1020034755


