60

 C     1.3548774464     -3.6515331209     1.4741499814
C     1.6047211484     -3.9341427338     0.1353576868
C     0.3359704347     -4.2466624668     -0.5228339394
C     -0.091001317     -3.7265704393     1.6847956944
C     -0.7112028835     -4.1521530822     0.4485648772
C     -0.4920893798     -2.5357286397     2.3007530121
C     1.8418955423     -2.4340401275     2.0575362864
C     0.7086400691     -1.7215288187     2.6119119311
C     2.8058886094     -1.7002039651     1.3760439561
C     2.3324663955     -2.994990534     -0.675817456
C     3.0502154786     -1.9894473656     -0.0404144565
C     0.2738978345     -3.469917329     -1.7126616537
C     1.4757028103     -2.6452446693     -1.8110787757
C     -0.9568823451     -2.9267952387     -2.1202842181
C     -1.9205340468     -3.5428131937     0.0748543731
C     -2.0853870009     -3.1325086223     -1.2791832014
C     -1.7289891507     -1.8792379866     1.9388957443
C     -2.4978041402     -2.4764756231     0.9023647974
C     -1.8446593352     -0.444130054     2.2185962892
C     0.6653429664     -0.3230621063     2.6645530295
C     -0.6653429664     0.3230621063     2.6645530295
C     2.8601741779     -0.2772074736     1.5392157366
C     1.8446593352     0.444130054     2.2185962892
C     3.2360263758     -0.734354025     -0.70233919
C     3.4143399909     0.2803716191     0.3222187031
C     1.4154061646     -1.3179275221     -2.2888075496
C     2.4664084442     -0.4007820322     -1.8567190743
C     -1.0332120206     -1.5530914859     -2.6010293208
C     0.1006097003     -0.7362110649     -2.6823626654
C     -2.9187398727     -1.952804961     -1.3267609466
C     -3.2611787325     -1.6083935337     0.0177760042
C     -2.3166381781     -0.9870567784     -2.1472956557
C     -2.8601741779     0.2772074736     1.5392157366
C     -3.4143399909     -0.2803716191     0.3222187031
C     -2.8058886094     1.7002039651     1.3760439561
C     -0.7086400691     1.7215288187     2.6119119311
C     -1.8418955423     2.4340401275     2.0575362864
C     1.7289891507     1.8792379866     1.9388957443
C     0.4920893798     2.5357286397     2.3007530121
C     3.2611787325     1.6083935337     0.0177760042
C     2.4978041402     2.4764756231     0.9023647974
C     2.3166381781     0.9870567784     -2.1472956557
C     2.9187398727     1.952804961     -1.3267609466
C     -0.1006097003     0.7362110649     -2.6823626654
C     1.0332120206     1.5530914859     -2.6010293208
C     -2.4664084442     0.4007820322     -1.8567190743
C     -3.2360263758     0.734354025     -0.70233919
C     -3.0502154786     1.9894473656     -0.0404144565
C     -1.4154061646     1.3179275221     -2.2888075496
C     -2.3324663955     2.994990534     -0.675817456
C     -1.4757028103     2.6452446693     -1.8110787757
C     -1.3548774464     3.6515331209     1.4741499814
C     0.091001317     3.7265704393     1.6847956944
C     -1.6047211484     3.9341427338     0.1353576868
C     1.9205340468     3.5428131937     0.0748543731
C     2.0853870009     3.1325086223     -1.2791832014
C     0.9568823451     2.9267952387     -2.1202842181
C     -0.2738978345     3.469917329     -1.7126616537
C     0.7112028835     4.1521530822     0.4485648772
C     -0.3359704347     4.2466624668     -0.5228339394


