60

 C     3.4168475896     -1.4916180693     -0.6851262679
C     3.4168475896     -1.4916180693     0.6851262679
C     3.5263527459     -0.0964915412     1.1561275173
C     3.5263527459     -0.0964915412     -1.1561275173
C     3.4539139426     0.7659765059     0.
C     2.6081702893     0.0425142753     -2.1796842292
C     2.4229626224     -2.1930868576     -1.4314380979
C     1.9852733867     -1.2796765191     -2.4393120712
C     1.4887048448     -3.0709664586     -0.7507341207
C     2.4229626224     -2.1930868576     1.4314380979
C     1.4887048448     -3.0709664586     0.7507341207
C     2.6081702893     0.0425142753     2.1796842292
C     1.9852733867     -1.2796765191     2.4393120712
C     1.8604707322     1.2651386913     2.3166793455
C     2.6599975941     1.9326248824     0.
C     2.0056076535     2.3053605543     1.2694244675
C     1.8604707322     1.2651386913     -2.3166793455
C     2.0056076535     2.3053605543     -1.2694244675
C     0.6424878806     1.1643856815     -3.0123474162
C     0.690043628     -1.3694678425     -2.9925076751
C     0.0376327398     -0.1405909211     -3.3142454022
C     0.2777953827     -3.3177799101     -1.4251069264
C     -0.1125777866     -2.4909510696     -2.585303775
C     -0.9375414218     -3.6677815824     -0.7032978114
C     0.2777953827     -3.3177799101     1.4251069264
C     -0.9375414218     -3.6677815824     0.7032978114
C     0.690043628     -1.3694678425     2.9925076751
C     -0.1125777866     -2.4909510696     2.585303775
C     0.6424878806     1.1643856815     3.0123474162
C     0.0376327398     -0.1405909211     3.3142454022
C     -0.4212305838     2.1054947425     2.7749970242
C     1.0552215145     3.3439515748     1.2526118847
C     -0.1890045652     3.227934599     2.0034520579
C     1.0552215145     3.3439515748     -1.2526118847
C     0.6932148033     3.9705963295     0.
C     -0.4212305838     2.1054947425     -2.7749970242
C     -0.1890045652     3.227934599     -2.0034520579
C     -1.3607614181     0.0046785731     -3.0838524186
C     -1.6358306274     1.341134092     -2.6079175049
C     -1.5126310153     -2.3498047227     -2.5459935164
C     -2.0251110306     -3.0421317333     -1.3750397128
C     -2.1185922462     -1.070165253     -2.6164418856
C     -2.910162237     -2.1635106631     -0.7027869179
C     -2.9487553639     -0.892615785     -1.4233772525
C     -2.0251110306     -3.0421317333     1.3750397128
C     -1.5126310153     -2.3498047227     2.5459935164
C     -2.910162237     -2.1635106631     0.7027869179
C     -1.3607614181     0.0046785731     3.0838524186
C     -1.6358306274     1.341134092     2.6079175049
C     -2.1185922462     -1.070165253     2.6164418856
C     -2.9487553639     -0.892615785     1.4233772525
C     -2.4443811566     1.5396535345     -1.4542367487
C     -2.964951694     0.3433075943     -0.7431965003
C     -2.4443811566     1.5396535345     1.4542367487
C     -2.964951694     0.3433075943     0.7431965003
C     -1.2579511964     3.7006430069     1.1564729133
C     -0.6814121107     4.3179846716     0.
C     -1.2579511964     3.7006430069     -1.1564729133
C     -2.2409457322     2.7588507643     0.7358028167
C     -2.2409457322     2.7588507643     -0.7358028167


