60

 C     -0.5555700181     -3.8554872522     1.0422621914
C     -1.2716641039     -3.8261407258     -0.1370378496
C     -2.499704404     -3.0836129006     0.0842342147
C     -1.2858996963     -3.0023956442     2.0119837676
C     -2.4549739142     -2.4779682338     1.3938327138
C     -0.3639206824     -2.1706570488     2.6357894214
C     0.8220205128     -3.5159852487     1.0885948016
C     0.9816421642     -2.6407344594     2.2403196786
C     1.557827473     -3.2536524898     -0.1250664911
C     -0.6468997475     -3.3576842205     -1.3546191713
C     0.7698639811     -3.1315238449     -1.3798798815
C     -2.7113978069     -2.2806163801     -1.0542113438
C     -1.5599168395     -2.4154942463     -1.955109925
C     -3.2966226909     -1.0438630788     -0.8879762161
C     -2.7837499896     -1.1008289688     1.5638826474
C     -3.4783933649     -0.5085708847     0.4499548358
C     -0.6330090955     -0.7678382976     2.8305074557
C     -1.8908182808     -0.2232308089     2.3435121215
C     0.544894339     0.1076568369     2.972107853
C     2.0555650217     -1.7930193403     2.3008445747
C     1.8497331196     -0.3890522523     2.6750852798
C     2.7325539731     -2.4470691333     0.0281046756
C     3.0292435194     -1.8446411603     1.2704749974
C     3.1406647548     -1.4767589244     -0.9955781264
C     1.2088907924     -2.2018085179     -2.3572100201
C     2.449378079     -1.4298550047     -2.1852855136
C     -1.099471016     -1.2934774901     -2.6941189194
C     0.2772294245     -1.3385009116     -3.0370250759
C     -2.9426194101     0.0835104667     -1.7640870802
C     -1.7692115918     0.0287732197     -2.5592289255
C     -3.5407325044     0.8861503059     0.3093578945
C     -3.2758966277     1.2602087154     -1.0635042551
C     -2.0008577756     1.2453095719     2.1775350191
C     -2.8629871011     1.7833912081     1.1606444524
C     0.3969737256     1.5019453098     2.853371498
C     -0.9034302749     2.0895254818     2.5669846543
C     1.4119813519     2.3355398711     2.2529734371
C     2.7796817873     0.4070336829     1.9193104572
C     3.4542301725     -0.4816295545     1.0293881721
C     3.5406893284     -0.2184125529     -0.345224622
C     2.4786326274     1.7366133432     1.5142937612
C     3.1302012732     1.0746080803     -0.8432032129
C     2.6931697088     2.1102146525     0.1085550304
C     2.2760702803     -0.1548216625     -2.800034072
C     0.94559436     -0.1106900033     -3.33784827
C     2.5669381233     1.0740086096     -2.1572800475
C     -0.9850626679     1.2808211035     -2.6826457775
C     0.3786033894     1.1453586047     -3.0925651508
C     1.4535802298     1.956090592     -2.485385266
C     -2.4740249993     2.4235189955     -1.0572665809
C     -2.4180668517     2.9014686851     0.3193879471
C     -1.3308601429     2.4759750207     -1.9126303966
C     -0.6872783302     3.3528219744     1.9623519296
C     0.743217144     3.4856672144     1.7490238084
C     -1.3526637114     3.6816855176     0.7311059143
C     1.8794072128     3.1776600232     -0.4009501902
C     1.1444797963     2.9820790505     -1.6560450963
C     -0.2655527841     3.3603297823     -1.465795028
C     0.9833578893     3.8801725007     0.4347814156
C     -0.3350592313     4.0078827215     -0.2337439163


