60

 C     0.4882828685     4.7172552251     -0.7521125366
C     -0.8590866073     4.6384268922     -0.5913079836
C     -1.200721427     4.2250648627     0.7685010721
C     1.0968038211     4.2624080496     0.5086891453
C     0.0506473978     3.8910340574     1.4483983258
C     2.0072488406     3.2709812992     0.1714842381
C     0.8586269223     3.7519326488     -1.8044895744
C     1.8571746867     2.9525881721     -1.2910306864
C     -1.4264355921     3.6562404532     -1.546683402
C     -0.3458342286     3.0543653606     -2.2686421155
C     -2.1708443232     3.2255038665     0.6353993238
C     -2.289573132     2.8378698971     -0.8091126678
C     -2.2140759977     2.1894443006     1.5777707741
C     0.1582096903     2.6503434698     2.1805480807
C     -1.041983199     1.9215858284     2.4000959383
C     2.3115920697     2.189476774     1.0453404587
C     1.3840566145     1.8143836389     2.0912362649
C     3.1251531124     1.1972163598     0.4452213417
C     2.0202434454     1.5902220139     -1.7307928241
C     2.9472232514     0.8608161934     -0.9908870557
C     -0.3351709377     1.6313352442     -2.4645937003
C     0.9236183842     0.8976010968     -2.402229881
C     -2.4429550818     1.4728356276     -1.1463410328
C     -1.5304565784     0.8804230738     -2.1101149862
C     -2.7956966487     0.9511515513     1.2487510143
C     -3.0065159046     0.6032981637     -0.1246319423
C     -1.0630895476     0.5217488395     2.7243091275
C     -2.213806099     -0.0706884256     2.1134309441
C     1.3885293003     0.4228044157     2.5543091686
C     0.1228293094     -0.2444391471     2.8755521617
C     3.3365437203     0.0037736697     1.1048060935
C     2.4577691981     -0.4325157716     2.1321384553
C     3.053217711     -0.5515707053     -1.1344060886
C     3.4594428088     -1.0776157785     0.1258798593
C     0.9423614326     -0.5512765211     -2.469368516
C     2.0956065755     -1.2746624688     -1.9162075178
C     -1.5470838669     -0.5499600333     -2.309493326
C     -0.3195212865     -1.2657045677     -2.6481653345
C     -3.1211580605     -0.7528380442     -0.4277679085
C     -2.601167383     -1.2761590209     -1.6535087231
C     -2.3048177344     -1.4452947272     1.8208908984
C     -3.0042710837     -1.8019658998     0.6048557146
C     -0.0159358664     -1.6607071929     2.7208017158
C     -1.2211109903     -2.2775971436     2.2367820175
C     2.2792778481     -1.8732685015     1.9367186344
C     2.9248911755     -2.2478049259     0.6637715587
C     1.0849882922     -2.4853951758     2.252529779
C     1.9545832883     -2.656512573     -1.5610655146
C     2.2943352134     -3.1379976467     -0.2093756433
C     -0.3117931959     -2.7044998176     -2.5189381951
C     0.8169358184     -3.3564362938     -1.9797312485
C     -2.5208723379     -2.689476981     -1.4784782948
C     -2.7130875116     -2.9982433136     -0.0331609295
C     -1.4524285754     -3.396631076     -1.9331554564
C     -0.8835890468     -3.5047989076     1.5099250668
C     0.5559956356     -3.6020606543     1.4704306884
C     1.2073344476     -3.9603783828     0.2602640572
C     0.3925220634     -4.2677397675     -0.8829903832
C     -1.6661442689     -3.8865378125     0.3853431394
C     -0.9768183304     -4.2813532687     -0.8253913894


