60

 C     -0.4625179928     5.067781787     0.6691295938
C     0.6907497391     5.2444825237     -0.0609604106
C     0.4177059323     4.9359195966     -1.4581765587
C     -1.5277015717     4.5181780091     -0.2095765555
C     -0.9690419318     4.404235983     -1.509214546
C     -2.0390768833     3.368496028     0.4379095422
C     -0.2460128409     4.1183726241     1.7567745013
C     -1.248160245     3.1482119582     1.6844412664
C     1.670731553     4.2735314824     0.4841456594
C     1.1274133045     3.6403043801     1.6872542915
C     1.2083812698     3.8228831852     -1.7432785448
C     2.0469694637     3.4411198222     -0.584246063
C     -0.9628304596     3.1059394447     -2.1138346685
C     0.4385098177     2.7402794013     -2.3442409471
C     -2.3527068986     2.1968166269     -0.29175143
C     -1.7778187551     2.0603536487     -1.6191846221
C     -2.6065144519     0.9857634421     0.4681160943
C     -1.0111238128     1.8120311772     2.1547263405
C     -1.9709722037     0.803072214     1.7670526982
C     1.3926068642     2.2868716111     1.9241239442
C     0.3292100213     1.4048034563     2.451942753
C     2.3405972498     2.0711381447     -0.3694830948
C     2.2864703085     1.5941308201     0.9976744475
C     0.8804424078     1.4211879958     -2.2609872131
C     2.0294261773     1.0957080862     -1.4007585169
C     -1.4551837808     0.7155559944     -2.0664511673
C     -0.1070357904     0.3591391863     -2.4232723418
C     -2.8854333647     -0.1747628217     -0.2673819921
C     -2.2719950185     -0.323538902     -1.5789087462
C     -2.8899960871     -1.4848587434     0.3119406348
C     -1.777508741     -0.5142635177     2.2324755686
C     -2.3604770948     -1.6581813065     1.5868738653
C     0.5963007817     -0.0081566544     2.6647760876
C     -0.4898249039     -0.9320399943     2.7264333712
C     2.5198024864     0.2384838486     1.1965864497
C     1.8231134186     -0.5626179371     2.2035201793
C     2.3105837897     -0.2699481977     -1.1681556063
C     2.7923240826     -0.633960392     0.119965052
C     0.2957956606     -1.0257242349     -2.4327326515
C     1.6211892813     -1.3410911342     -1.926062585
C     -1.9891755152     -1.6924008178     -1.8273031815
C     -2.5323475177     -2.4579578839     -0.7234660344
C     -0.7201640265     -2.0762648973     -2.3776327985
C     -2.0181294522     -3.6967983281     -0.3883240191
C     -1.5352808284     -2.8351606887     1.8740145733
C     -0.3276807053     -2.3571479843     2.511713957
C     -1.5030937972     -3.912578109     0.9924139269
C     1.9772600602     -1.9410612793     1.8921307139
C     2.6675051099     -1.9885396051     0.6124440061
C     0.937847257     -2.9158134364     2.1264683811
C     1.9545699744     -2.6826025825     -1.6324638794
C     2.4999268364     -3.0238096288     -0.2720591506
C     -0.3244387688     -3.4356716721     -2.1905242816
C     -1.0587141978     -4.2858295801     -1.2728427873
C     1.0610785469     -3.7368044879     -1.9399667014
C     -0.2948545931     -4.6741135954     0.8596206148
C     0.9489033752     -4.1147738017     1.3280850225
C     1.8474924048     -4.2079048194     0.1788621116
C     -0.1466573159     -5.1171733682     -0.519918197
C     1.1495617719     -4.7932421759     -0.9284564558


