60

 C     1.1403532012     4.3073330158     -0.5191221009
C     0.0382535102     4.3804746749     0.3853357861
C     0.4390047138     3.7182893238     1.6084175692
C     2.2022507535     3.5751022623     0.0697015219
C     1.7589540833     3.1176028076     1.3648743149
C     2.6241288833     2.6036881304     -0.8967967985
C     0.7234352756     3.6462580427     -1.7190186474
C     1.6324304635     2.5715990289     -1.9824915738
C     -1.1364173486     3.9466847841     -0.3090033261
C     -0.6853293484     3.3923006011     -1.6163751918
C     -2.1112377422     3.2684322009     0.4218919844
C     -0.5143048339     2.9681787238     2.2885855424
C     -1.8495605976     2.944764591     1.7868377127
C     -0.2159462168     1.6053223429     2.7789871994
C     2.0367421316     1.7784012578     1.7909720866
C     1.0203203507     0.9887761062     2.5320345938
C     3.0924323959     1.4059288201     -0.4336285414
C     2.9180186573     1.0246637905     0.9642245952
C     2.9444003454     0.2099516532     -1.2150485856
C     1.1651746524     1.330740198     -2.4863870955
C     1.9525971627     0.1125930516     -2.2156149291
C     -1.2033951434     2.1772022566     -2.0909539813
C     -0.2706503848     1.2023678443     -2.7114128894
C     -2.7960335676     2.1235579981     -0.167043035
C     -2.4230400174     1.6350206988     -1.4363708688
C     -2.3988290592     1.6391027023     2.0320682373
C     -1.4391459782     0.8268128547     2.6879913227
C     -3.0709858965     1.1584429593     0.8876873342
C     -1.4293369841     -0.5657499108     2.4891605545
C     1.0710837569     -0.488458544     2.5572578863
C     -0.1628531786     -1.2480322168     2.708766429
C     2.9834090365     -0.3894538254     1.0361553847
C     3.1780481912     -0.8895247653     -0.3187020005
C     2.2095367671     -1.1679775579     1.9515663075
C     2.8337416482     -2.1808295044     -0.653210889
C     1.3818018021     -1.2279753417     -2.4571592862
C     1.8803191965     -2.377190196     -1.7556444403
C     -0.771556815     -0.0785311829     -3.0227893848
C     0.0502425705     -1.3012827833     -2.9063959313
C     -2.8134677857     0.2959360781     -1.7297640058
C     -2.1021277222     -0.4409132209     -2.7215480732
C     -3.1162203038     -0.2416587478     0.6468344392
C     -2.4356682922     -1.1393181828     1.5865560003
C     -3.239331893     -0.6354540912     -0.710538525
C     -2.2617811157     -2.493969426     1.2047745874
C     -0.1479034946     -2.6617503321     2.4778707486
C     -1.2606420875     -3.2723318402     1.7869133023
C     2.1547834711     -2.5825085321     1.6774296705
C     2.5803816578     -3.1024051457     0.3769235784
C     1.0348571262     -3.3359606347     2.080894394
C     1.0464826954     -3.4842470035     -1.3748863719
C     -0.7012554897     -4.1355145693     0.7518826924
C     1.5521502012     -3.9785934777     -0.0971352583
C     0.6704387626     -4.2441752133     0.9633923827
C     -0.8094989028     -2.3946687823     -2.5066861825
C     -2.1080106814     -1.8238742581     -2.3567044809
C     -2.8253977044     -1.9659847179     -1.1350109233
C     -2.3762654039     -2.8992855408     -0.2156950935
C     -0.3730069981     -3.4310163379     -1.615864244
C     -1.2665725763     -3.7768929169     -0.5189853035


