60

 C     -2.5552130066     -3.4424336582     0.8542063288
C     -1.1963412863     -3.7910794182     1.1348990298
C     -0.6286827615     -2.8700280115     2.0634155415
C     -2.8405719486     -2.242493677     1.5358683745
C     -1.6515727048     -1.8416652991     2.2640154823
C     -3.3402643605     -1.2804568691     0.5910256451
C     -2.5589980198     -3.1075763247     -0.5508098602
C     -3.1101677668     -1.8195104486     -0.7390623547
C     -0.4930857624     -4.0515019949     -0.0938932284
C     -1.2983745848     -3.4215059988     -1.1556055287
C     0.8701471321     -3.8851568744     -0.085326309
C     0.7449035832     -2.5156981212     1.9794065828
C     1.5417693548     -3.2334305733     1.0295067735
C     1.1325047103     -1.1378220532     2.3745765432
C     -1.3055814325     -0.4783292255     2.4218682297
C     0.0952802185     -0.1111234347     2.5975376527
C     -3.2087765937     0.0947617568     0.8471481168
C     -2.2716265784     0.5179038356     1.9143248324
C     -3.3802096493     0.9373348484     -0.2719445215
C     -2.6019623269     -0.937030712     -1.7403189814
C     -3.0357609543     0.4001191844     -1.592648408
C     -0.6693890875     -2.4852883329     -2.0498479477
C     -1.3031000005     -1.2005463864     -2.3462028357
C     1.4977555981     -3.3916511692     -1.2878684317
C     0.7573366766     -2.5653167987     -2.1624485184
C     2.7348293945     -2.617600033     0.4871509584
C     2.7138435884     -2.7313555095     -0.9433968562
C     2.435368964     -0.7076225625     2.0466653014
C     3.244183914     -1.4538005694     1.0656577158
C     2.7480945011     0.694244378     1.8999091745
C     0.451164646     1.3073828468     2.5765295532
C     1.7968945417     1.7155388152     2.165518828
C     -1.9241364043     1.8557668678     1.9675196089
C     -0.603866229     2.2677944132     2.4164007005
C     -3.0111326386     2.3282518345     -0.2245510315
C     -2.3935849649     2.8234961163     0.953450503
C     -2.3658364969     1.4337970206     -2.2596488265
C     -2.4383075435     2.6642211854     -1.4803178241
C     -0.4624249284     -0.0476979935     -2.6970200575
C     -1.0402744417     1.2512691406     -2.6924776891
C     1.5858621779     -1.3788823882     -2.4363299465
C     2.8447580761     -1.552096665     -1.7394400659
C     1.003202011     -0.113096318     -2.5930852692
C     3.8373457183     -0.4890363446     0.2159481997
C     3.6144887008     0.8079323944     0.7721102208
C     3.4734105335     -0.4410178639     -1.1798913286
C     1.7663618649     1.089926624     -2.1524311779
C     3.2753234773     1.7110341303     -0.272322675
C     2.9796540918     0.8875628672     -1.4649877007
C     1.9502189093     2.9225543953     1.3920307
C     2.5138611999     2.7943426806     0.0502425829
C     -0.3529991435     3.5446802547     1.8321519477
C     -1.4096992222     3.8120766667     0.8314403445
C     0.8754332114     3.8181851809     1.2571497643
C     -1.2101051034     3.3474589358     -1.5737384267
C     -0.2878533826     2.4683054256     -2.2976807872
C     1.0616342457     2.379758528     -1.9427131343
C     1.5293169803     3.2971225482     -0.9013179391
C     -0.7628181047     4.0668778941     -0.427546786
C     0.6377690073     4.1021504599     -0.1828004891


