60

 C     0.0368148977     -4.3576814758     -0.6828645021
C     -0.6156191272     -4.1057421299     0.5148652168
C     -1.8335259595     -3.3544154404     0.2606772117
C     -0.6359002695     -3.5844382413     -1.7090528355
C     -1.8335652241     -3.0265830202     -1.1560089619
C     0.2847268726     -2.7121532412     -2.3180528019
C     1.389625978     -3.8445813119     -0.5803873123
C     1.6070739924     -2.9634392053     -1.6858208948
C     0.3695488175     -3.5517618044     1.4559394094
C     1.6596427425     -3.393014309     0.7369474384
C     -0.0383856779     -2.5769743165     2.3257077703
C     -2.2696605723     -2.384220306     1.2032958737
C     -1.4007540104     -2.0526397804     2.3196538542
C     -3.1023426046     -1.357420168     0.7049179311
C     -2.3006761331     -1.7718021198     -1.6154562172
C     -3.1880943522     -1.1139754689     -0.7118656573
C     -0.0866969354     -1.3743810616     -2.7042378341
C     -1.4480271929     -0.9298376299     -2.4646523518
C     0.9970733385     -0.3858746494     -2.8091864745
C     2.4836291758     -1.9214049221     -1.5059100465
C     2.2657141549     -0.6520488452     -2.1862162109
C     2.4765661179     -2.2375418464     0.9475840297
C     3.0593123367     -1.6435816035     -0.2175996082
C     0.8729306007     -1.4924947073     2.7098999676
C     2.1495954385     -1.3256612673     2.0633209415
C     -1.3204432923     -0.7180027589     2.7705954369
C     0.0795588279     -0.3906689147     3.0831713434
C     -3.2084842198     -0.0532241642     1.3671904109
C     -2.2278618305     0.3154377518     2.3403816203
C     -3.5226679809     0.2542735906     -0.8881099467
C     -3.6382028715     0.8951821055     0.4075855648
C     -1.7503731851     0.5118447752     -2.5615574441
C     -2.8324876581     1.0817328867     -1.7766602361
C     0.6681224927     0.9750644065     -2.9593513063
C     -0.7126804833     1.4043398355     -2.9141883471
C     1.4919074085     2.0302985925     -2.4123694395
C     2.9860962322     0.3570636567     -1.489614779
C     3.4458756601     -0.2570703891     -0.2444936558
C     2.5777705518     1.7357277168     -1.5440507245
C     2.6802670303     -0.0191083541     2.0711320271
C     3.4205029982     0.4924782094     0.9204123042
C     0.569739512     0.9484423153     3.0166271877
C     1.9374908081     1.109024883     2.6309945424
C     -1.7428653905     1.6673387491     2.3196620648
C     -0.3581215989     1.9846648525     2.6725610694
C     -3.0520942818     2.1734248757     0.3063598767
C     -2.6764832961     2.3838229687     -1.0925284504
C     -2.1754300918     2.6037648468     1.3223199686
C     -0.713101597     2.7703106022     -2.4400384605
C     0.6104053496     3.118454681     -2.1005802272
C     -1.5965639741     3.1848589844     -1.3935161753
C     0.0532743788     3.1232659976     1.8993503981
C     -1.0395684291     3.4588673085     0.9932330185
C     0.6282337156     3.7572002034     -0.8077140975
C     -0.7647735733     3.7775649549     -0.3270361559
C     2.7332674169     2.5411739684     -0.3540879918
C     3.1610905638     1.8944021817     0.824771924
C     2.3255511689     2.2864826248     1.9379908714
C     1.6765981906     3.4815994721     0.0511134014
C     1.3874450434     3.233635555     1.4749463718


