60

 C     0.5495754902     4.5769044684     -0.1204327813
C     0.4290548665     4.0119075006     -1.4817048145
C     -0.8927710974     3.6944311514     -1.6935449381
C     -0.6748697459     4.3293970727     0.5696559221
C     -1.6273650262     3.9170001909     -0.4035496511
C     -0.4032582932     3.4739729386     1.7267205989
C     1.5786772276     3.874621228     0.5199067955
C     1.0398916216     3.3138948391     1.7577932505
C     1.4279425625     2.9784527671     -1.6464264417
C     2.1897065924     2.9554888379     -0.4037988899
C     1.1091140053     1.7441050348     -2.2746759294
C     -1.2612434573     2.4116308882     -2.1937243539
C     -0.291776226     1.4577563147     -2.6076224165
C     -2.3933983453     2.7927927051     -0.1869012854
C     -2.3586032521     1.9350003474     -1.4032236606
C     -1.2179434695     2.3413204184     2.005577338
C     -2.3524595298     2.1077117807     1.0989540843
C     -0.6293953494     1.1353897385     2.6400470398
C     1.5852954541     2.1411055525     2.2097454563
C     0.7731322736     1.0989483949     2.7758796725
C     2.7792615389     1.7439748899     0.0651162315
C     2.6362737576     1.4658693775     1.4486905492
C     2.0162885643     0.6147186963     -2.0470378458
C     2.9039854536     0.6175660622     -0.8633674121
C     1.6704127494     -0.6092939737     -2.6237065123
C     -0.7375291486     0.0779352089     -2.735752084
C     0.2763070717     -0.8751258349     -3.0195758742
C     -2.7314062148     0.597431589     -1.3672394617
C     -1.9836012401     -0.3871037378     -2.1436920856
C     -2.957544604     0.8714268714     1.1080598071
C     -3.3809461381     0.1907430932     -0.1447202993
C     -1.3279920712     -0.1598591876     2.6449321939
C     -2.6267096708     -0.1754081931     2.0641937193
C     -0.574035385     -1.4358181475     2.6733878317
C     1.5211500133     -0.149680183     2.6989316611
C     2.7099216101     0.12269442     1.9182305465
C     0.8909230507     -1.4069421265     2.6463838318
C     3.3361419753     -0.6154339028     -0.3432750268
C     3.2508931535     -0.8574843942     1.0955196636
C     2.2298432186     -1.8682861984     -2.1652320576
C     3.0288450583     -1.8810001905     -1.0051419456
C     0.0384878064     -2.2447478268     -2.8524125544
C     1.2350136063     -2.8714780524     -2.3184734497
C     -2.1525530891     -1.8109278799     -1.815457057
C     -1.0977446138     -2.7171180609     -2.1475661088
C     -3.5614550907     -1.1374569184     0.1380807147
C     -3.1873689391     -1.3658767702     1.5480018546
C     -2.9599844664     -2.1750724621     -0.6672810398
C     -1.187022449     -2.6156002359     2.1415955102
C     -2.490506158     -2.5539446811     1.5843430257
C     -2.4827414368     -3.1628201507     0.2384588012
C     0.8510943962     -3.7306213062     -1.2549903359
C     -0.600350993     -3.7078887142     -1.1814772532
C     -0.4346853411     -3.5542522528     1.2909308727
C     -1.2326384263     -3.7848872222     0.0639339811
C     1.6312747831     -2.4755065372     1.9962415883
C     2.8081949998     -2.1886018271     1.2852244339
C     2.7622140917     -2.8667566126     -0.0103373367
C     0.9304513294     -3.5106369044     1.2248556277
C     1.620530946     -3.6985620932     -0.0570514005


