60

 C     0.5276857449     4.5719103831     0.8594018431
C     1.2388773851     4.2288844892     -0.3728007616
C     0.3361711389     4.0198884857     -1.4117104936
C     -0.8562070702     4.3311130117     0.5943238665
C     -1.0215474978     4.109827976     -0.8022662032
C     -1.3514184763     3.3021312566     1.496957045
C     0.9280450288     3.577244453     1.7808606469
C     -0.2078365321     2.8196656953     2.2412245641
C     2.207175848     3.1981873755     -0.1174218832
C     2.0161460735     2.7922178861     1.2652487044
C     2.4633879559     2.1863466147     -1.0794132299
C     0.3813321569     2.8128329531     -2.1778166365
C     1.4733958584     1.8977715008     -2.1248976836
C     -1.7739595529     3.0319014063     -1.2658264267
C     -0.9533401749     2.2751163249     -2.2207405718
C     -2.3414476133     2.3778006073     1.0689563106
C     -2.6399157342     2.2883583787     -0.3733831512
C     -2.4180208591     1.1696179697     1.8100285507
C     -0.0767443994     1.4357315806     2.6040375609
C     -1.2854428538     0.7069057638     2.5761697607
C     2.2141747493     1.4313566397     1.6718297381
C     1.1810275359     0.7100502411     2.4174396066
C     3.198192996     1.1003710249     -0.5549469798
C     3.0728543236     0.7107576756     0.8234783699
C     3.2809352411     -0.1038973294     -1.279735344
C     1.2332872796     0.4959943889     -2.5047400364
C     2.2519949347     -0.4626320314     -2.1957744169
C     -1.2171017658     0.9251752441     -2.512094475
C     -0.1132433719     -0.0189820759     -2.6963668764
C     -3.1171848561     1.0812657544     -0.8793186196
C     -2.4922121644     0.4610771422     -2.0549046524
C     -3.0851519546     0.0017591453     1.311572478
C     -3.5378699787     -0.0144337299     -0.0144954058
C     -1.2946521224     -0.7246472052     2.597697299
C     -2.4505907571     -1.1836415478     1.8636955813
C     1.1845616431     -0.7398054141     2.4124576974
C     -0.0849877735     -1.463340883     2.6227613664
C     3.1633521356     -0.7400842221     0.8872838361
C     3.5231986497     -1.2138452012     -0.399395343
C     2.2619616818     -1.4709484618     1.7292804714
C     1.9943484305     -1.8808232035     -2.0284705258
C     2.8399029482     -2.3407534111     -0.9235340905
C     -0.3791443847     -1.4591127532     -2.5446944843
C     0.6940728051     -2.4119749353     -2.1876966363
C     -2.7276036428     -0.9074921633     -1.996473988
C     -3.4184665454     -1.2320292017     -0.7477088431
C     -1.7067108555     -1.8588095129     -2.2120034487
C     -2.4125360473     -2.4196018737     1.16942756
C     -2.8651975944     -2.3943953013     -0.2214030968
C     -1.9540388472     -2.9407844346     -1.2458038256
C     -0.1994363721     -2.8436338194     2.2581177961
C     -1.3553648537     -3.30815134     1.4922222748
C     2.0683883799     -2.8469042677     1.3586900054
C     2.3678881904     -3.2842985156     -0.0301262154
C     0.9364816135     -3.5840103449     1.8054916675
C     0.3783505981     -3.6260067741     -1.4608815388
C     -0.9702109448     -3.8151007971     -0.8979391274
C     -0.8586757619     -4.2412975406     0.5026982683
C     1.2527850415     -4.0676724883     -0.4335566274
C     0.49628529     -4.4521505884     0.7469886693


