60

 C     -0.9588045976     4.5783760792     -0.10231791
C     -1.9965778021     3.7985959857     -0.7237926169
C     -2.7270058799     3.188845443     0.3081413242
C     -0.8478262005     4.0965649437     1.3080947193
C     -1.9479754237     3.3167497763     1.583524703
C     0.4630132474     3.5456090608     1.5309139602
C     0.2343462944     4.2421732596     -0.7113269421
C     1.1970373023     3.8790093441     0.3119359351
C     -1.3876482965     2.9423275905     -1.7566789978
C     0.0096563149     3.2598705034     -1.7966701632
C     -1.7874627016     1.596769743     -1.9173425864
C     -3.1217513958     1.8685823682     0.1802715281
C     -2.8797532402     1.1598400038     -1.0499830161
C     -1.7990948268     1.9975781637     2.1057355052
C     -2.7431116244     1.1645852801     1.4098211925
C     0.6608891071     2.2365913878     2.0945753583
C     -0.5218748294     1.4126795344     2.3975889286
C     1.9452770414     1.5649919742     1.821503685
C     2.2433463211     3.1205768333     -0.0764045434
C     2.8120298589     2.1699445871     0.843078155
C     0.9803771925     2.2783237183     -2.0707582874
C     2.2644113103     2.4984830734     -1.4255158927
C     -0.8166327905     0.5591837171     -2.3477936305
C     0.5919685598     0.8909182887     -2.3901411021
C     -1.2272899412     -0.8486356617     -2.3538698566
C     -3.1472260499     -0.1888287007     -0.9785675613
C     -2.5474678917     -1.1416707793     -1.8615746334
C     -2.6948461304     -0.2182439328     1.448047483
C     -3.3356405034     -0.8483940612     0.3229890546
C     -0.4276946974     -0.0522739322     2.4393788548
C     -1.5865984592     -0.8931674069     2.1016337154
C     2.0821272129     0.1316219143     2.0567277807
C     0.8917258479     -0.6702100753     2.4288286565
C     3.1554103191     -0.5574497266     1.3814554756
C     3.682140003     1.3848973734     0.0378933792
C     3.1806590333     1.485147015     -1.3674254913
C     3.8635625007     0.0751532356     0.311800293
C     1.5896316752     -0.1908374204     -2.2782210384
C     2.9164407538     0.1559548991     -1.839354516
C     3.604379187     -0.7126916639     -0.9273471613
C     -0.2340796305     -1.9363592658     -2.3106698123
C     1.1648565007     -1.5834973245     -2.1056017829
C     -0.6569665994     -3.2630512359     -1.8954837371
C     -2.8545955033     -2.4190033115     -1.3039234996
C     -3.21573201     -2.201999597     0.132843026
C     -1.9835518742     -3.4519441637     -1.3536917492
C     -1.4788689344     -2.341267604     1.9037982716
C     -2.3777181853     -3.0023134425     0.9440456092
C     -1.8466002669     -4.0102066309     0.036124605
C     0.9533395956     -2.0857903395     2.3036993871
C     -0.198416948     -2.9344941748     2.0990685511
C     2.9588873764     -1.9006568767     0.937710354
C     3.0825881759     -1.9190496262     -0.5559738647
C     1.9989394639     -2.4861115754     -1.2966458558
C     2.037571761     -2.7026660976     1.5417538163
C     0.1819013372     -4.079268187     -1.0797235162
C     -0.5720838446     -4.4591184968     0.158787434
C     0.2241677497     -4.0701887834     1.2785298212
C     1.4361972152     -3.6429664514     -0.6796032883
C     1.5140187201     -3.7875884512     0.7961025905


