60

 C     -0.9235533169     -4.3432521274     0.1082356705
C     -2.0064172716     -3.6117055057     -0.3723459569
C     -1.5711195864     -2.8899983235     -1.5721114579
C     0.1960044547     -4.1084534249     -0.7478676487
C     -0.1810191148     -3.1879072912     -1.805094087
C     1.3155661257     -3.7860249981     0.050700564
C     -0.5610088536     -3.7807220183     1.4109526231
C     0.8175708852     -3.4422968689     1.4142232056
C     -2.5246710082     -2.804942106     0.7041353632
C     -1.5206319117     -2.8126117689     1.7874539167
C     -3.1546199147     -1.6356706033     0.3744769502
C     -2.0951542813     -1.6098774414     -1.8742054427
C     -3.1013405225     -1.1031476883     -0.9899409389
C     -1.2455476367     -0.6366115155     -2.5781376403
C     0.7242341002     -2.1431592384     -2.2158111425
C     0.1940396035     -0.8440106944     -2.6476356757
C     2.3067189497     -3.0047515613     -0.5142562049
C     2.0543039071     -2.2023088111     -1.6877261686
C     3.1102539007     -2.2236816141     0.3703034725
C     1.2598752409     -2.2328065445     2.0259291308
C     2.5436610153     -1.7324187172     1.565313394
C     -1.1260220559     -1.5686462806     2.3782563489
C     0.2913590681     -1.2725654866     2.5469971858
C     -3.1067579034     -0.5144927346     1.2669236295
C     -2.0877300239     -0.464562834     2.2743499586
C     -3.3801534568     0.2929700085     -0.9019280103
C     -3.4720074741     0.6641437795     0.5105543541
C     -1.7572856664     0.693130902     -2.6727071592
C     -2.8163892887     1.1778826856     -1.8055164569
C     -0.8783654013     1.7741218948     -2.9049802196
C     1.092256434     0.3342629574     -2.6772984216
C     0.5209804096     1.6235748263     -2.8327599754
C     2.8710715139     -1.0050252193     -1.5548992472
C     3.6170312406     -1.0941358816     -0.3546187459
C     2.414576015     0.2699447517     -2.0347500364
C     2.9265540394     -0.3331918975     1.7024905468
C     3.6886103367     0.0247312216     0.5145195524
C     0.7142490287     0.1329349356     2.747194603
C     2.0562289624     0.6005794708     2.3065558548
C     -1.674569143     0.8319495379     2.6673893666
C     -0.2740964357     1.11763948     2.9096531063
C     -3.0762188614     1.9222224025     0.9332401077
C     -2.2949451632     1.994956426     2.1134597017
C     -2.4439370915     2.5391389911     -1.3783479363
C     -1.2776105321     2.9091062275     -2.112503997
C     -2.5130939277     2.8918407359     -0.0325094981
C     1.0201022058     2.7890054981     -2.0930973934
C     -0.1259461161     3.4878474466     -1.5169177958
C     2.9341425119     1.4235077015     -1.3801170336
C     3.5408261776     1.2825980225     -0.0500215953
C     2.1951479446     2.6792790716     -1.3795592209
C     2.2392458775     1.9816138834     1.9114252683
C     2.9985669237     2.2954173933     0.7686264953
C     2.2349778676     3.2251003184     -0.0536967607
C     -0.0619762057     2.5124980751     2.4756845619
C     -1.2879065265     2.9847238655     1.9051597423
C     -1.3754370234     3.5552803733     0.5994054665
C     -0.1537983182     3.820933857     -0.1142543899
C     1.1091786559     2.9070330326     1.8923655386
C     1.081996937     3.6490094227     0.6196405774


