60

 C     1.6532133703     -4.006628753     0.6675865339
C     0.2473418717     -4.2400278133     0.5785314248
C     -0.1556428162     -3.8831175276     -0.7362593905
C     2.1471324723     -3.5013228324     -0.5909814077
C     1.0473191042     -3.3957796993     -1.463783459
C     2.9529770809     -2.3315159909     -0.3212306676
C     1.8926525005     -3.0125426664     1.6307148289
C     2.7653749845     -1.9852425903     1.0893264801
C     -0.3743433797     -3.5337676341     1.6849012602
C     0.6596512532     -2.6830109675     2.3099930115
C     -1.6317453181     -3.0242961925     1.5284714752
C     -1.4344592884     -3.2731652573     -0.9637215814
C     -2.277700414     -3.0539511182     0.1997376127
C     -1.5550649854     -2.3278341654     -2.031140225
C     0.9393074575     -2.2595603301     -2.3532357534
C     -0.3585348383     -1.7947509311     -2.6993715149
C     2.9489447941     -1.2977216591     -1.2311231729
C     1.9775078847     -1.2740925689     -2.3203808063
C     3.1417153886     0.0518759318     -0.7814172035
C     2.5976063713     -0.6599531862     1.4918276227
C     3.0085001847     0.4198197446     0.5758693187
C     0.4035397685     -1.3508059091     2.6543777864
C     1.495597634     -0.3671357315     2.4389603795
C     -1.9854678178     -1.7630776434     2.1575449584
C     -0.9945800984     -0.8729164807     2.668079977
C     -3.2245305393     -2.0237700864     0.1951465705
C     -3.0715214036     -1.231485774     1.4296850833
C     -2.5305592538     -1.2785256414     -2.0049185669
C     -3.3542891753     -1.1071016599     -0.8713793175
C     -0.597891561     -0.4255176567     -3.0423350378
C     -1.9520994838     -0.1092716183     -2.6436967161
C     1.7266366324     0.0985625304     -2.6438263751
C     2.5886849434     0.9184564556     -1.80419089
C     0.426663409     0.5706256352     -2.9763029446
C     2.3117972923     2.2241638945     -1.5324232778
C     2.7166105809     1.8166431705     0.8879147792
C     2.5637567936     2.7593226281     -0.1960544177
C     1.2119881352     0.9551071571     2.6823531385
C     1.9648560927     2.0733164356     2.0829836331
C     -1.2706364012     0.5403183588     2.6130034519
C     -0.1695074776     1.4153765397     2.89868755
C     -3.1992240796     0.1305217634     1.1451880854
C     -3.4850550577     0.2326613457     -0.2897218325
C     -2.3507547393     1.079794652     1.7931146421
C     -2.2483437529     1.1641637897     -2.1915405315
C     -3.0183502988     1.33166139     -0.9670839958
C     0.0725843592     1.9629848816     -2.624629062
C     1.0844007329     2.8244407882     -2.0560877844
C     -1.2710714572     2.2287642237     -2.2361026302
C     1.709317633     3.8871143028     -0.06508418
C     0.7556191051     3.8751391366     -1.1838138935
C     1.1409106317     3.2131144472     2.1849895996
C     -0.2101605163     2.7596087076     2.5863909305
C     0.9805690026     4.1001843701     1.1152632315
C     -2.1787597049     2.3846208547     1.1452423123
C     -2.4748064945     2.4676535326     -0.2522320948
C     -1.5619854775     3.14331514     -1.1435685427
C     -0.568592305     3.999006589     -0.6387564443
C     -1.1669213649     3.2838841713     1.6437461431
C     -0.4601781643     4.1556673169     0.7767620959


