60

 C     0.803911142     -5.0114534087     -0.1027644422
C     -0.4992849375     -5.2188300377     0.2960502399
C     -1.3934597244     -4.8688870828     -0.8045658986
C     0.8220942924     -4.3799608129     -1.4511330936
C     -0.5330780721     -4.2517067218     -1.8478783432
C     1.6421707421     -3.2302830487     -1.3574993445
C     1.5037469623     -4.133387274     0.8201748343
C     2.0950220594     -3.1262638638     0.0560706087
C     -0.7151335397     -4.3072217575     1.4349753908
C     0.5574868935     -3.6903505496     1.8374507203
C     -2.1303348005     -3.7884037567     -0.3252729729
C     -1.7765768361     -3.4557555683     1.0761213137
C     -1.0059382716     -2.9324050226     -2.1612221538
C     -2.1118151585     -2.6623634848     -1.2461183847
C     1.2754653392     -1.9979853585     -1.975489444
C     -0.1105783491     -1.8505720658     -2.3832903694
C     2.0056154377     -0.8037184858     -1.5980279596
C     2.3244105443     -1.8388436515     0.6161202678
C     2.6779640724     -0.7943669699     -0.3128068552
C     0.5682199975     -2.351708897     2.244745946
C     1.680368853     -1.4731244728     1.8383815705
C     -1.8108493442     -2.1006336635     1.5012718324
C     -0.7182711415     -1.6395113188     2.3408733664
C     -2.3663968689     -1.3801242164     -0.7918968471
C     -2.4327694975     -1.1013799074     0.6518582861
C     -0.6673657121     -0.5156334581     -2.3389000903
C     -1.8760100429     -0.2836164981     -1.6066568722
C     1.6188171784     0.4673152602     -2.1665216374
C     0.2150025982     0.609737539     -2.5677895581
C     2.3023595765     1.6464913077     -1.7398331283
C     3.0570846975     0.4390191159     0.2405452107
C     3.0827499821     1.5844947499     -0.5517955544
C     1.7049226578     -0.070824167     2.2353451903
C     2.5450856904     0.8276844378     1.5601564554
C     -0.7088649634     -0.2918003393     2.6775567602
C     0.5197252261     0.502468571     2.8256032414
C     -2.4504195485     0.2583743836     1.0624275486
C     -1.7202013357     0.5963032685     2.2361368344
C     -2.278373896     1.0498715462     -1.2784750578
C     -2.6888600334     1.3432794856     0.0905592347
C     -0.3642286187     1.8843203872     -2.6013470273
C     -1.7048519829     2.0972790688     -2.0561214284
C     1.6827035154     2.9654129182     -1.7827170101
C     0.4031093079     3.0884254814     -2.3171159971
C     2.724780743     2.7358937574     0.2611346525
C     2.2941954455     2.2640801915     1.5322727849
C     1.9773669073     3.6585220405     -0.5043126821
C     0.2069343163     1.8692576796     2.7346578582
C     -1.2390486564     1.9397623735     2.4443977712
C     1.0969673342     2.8235181319     2.0982195516
C     -2.6123963265     2.6838585873     0.5419248784
C     -1.7855469531     2.9753451282     1.7439201812
C     -1.8354153224     3.4424649114     -1.6464129898
C     -0.4973592666     4.0770120716     -1.7729753119
C     -2.3287844094     3.7487113918     -0.3723542303
C     0.9732690019     4.4033462243     0.1456983651
C     0.5202982139     3.9649016062     1.4552567137
C     -0.9435741421     4.1206276337     1.4370152506
C     -0.2071711117     4.7991174541     -0.6184368157
C     -1.3688898645     4.6842191555     0.2428088401


