60

 C     -1.2369325936     -4.4042720076     -0.4468985505
C     -0.1817985686     -4.0859970782     -1.4049422343
C     1.0405872016     -4.0721371504     -0.7309862606
C     -0.6562327885     -4.2557479053     0.8753802795
C     0.7295603939     -4.1422969361     0.7416626891
C     -1.3348094917     -3.1972760216     1.5864006683
C     -2.2025105925     -3.4067908821     -0.5678608114
C     -2.3948334046     -2.7438692596     0.7084510151
C     -0.5450839629     -2.907700449     -2.1519983198
C     -1.8632761355     -2.5223790213     -1.6702130689
C     0.4036478243     -1.8765295198     -2.4299730124
C     1.9753652032     -3.0483462475     -0.9291929079
C     1.7495546409     -1.977860986     -1.8641268519
C     1.475078048     -3.1327570704     1.3830952546
C     2.4518089869     -2.6688603412     0.4043394589
C     -0.5970167092     -2.2106128279     2.3257206883
C     0.8584296711     -2.1425479761     2.2377695853
C     -1.2774793369     -0.9847503309     2.5638260737
C     -2.8726351922     -1.4260167805     0.7352881122
C     -2.4824971859     -0.6434637202     1.8542953901
C     -2.3071113811     -1.1909733697     -1.6861849305
C     -3.0678733374     -0.7027353517     -0.5289154315
C     -0.1329473657     -0.5556651803     -2.7508335959
C     -1.5321914731     -0.2419236996     -2.4735346125
C     0.7722012065     0.5367072157     -2.822356085
C     2.5578007896     -0.7737647625     -1.6997073003
C     2.1030135053     0.4435382941     -2.2851297348
C     3.1170056013     -1.5116586838     0.6023447979
C     3.3883122834     -0.6361122387     -0.5304351471
C     1.5408337762     -0.8549582354     2.4193034824
C     2.7895503714     -0.670116003     1.7475392361
C     -0.6037212197     0.2433523552     2.8959117393
C     0.8025594953     0.3705710766     2.7770181065
C     -2.6434112052     0.7838066132     1.8795508831
C     -1.5071447774     1.3443951411     2.6020678556
C     -3.3404105617     0.6700314778     -0.4551549336
C     -3.1751940466     1.4410595807     0.7856415729
C     -1.9447249906     1.1180403222     -2.4406741794
C     -2.9221680106     1.5239012272     -1.504751068
C     0.3360688104     1.9184613098     -2.7129195853
C     -0.9979482016     2.2204755294     -2.5477301928
C     2.4616559195     1.7525509828     -1.7538444109
C     1.3655084343     2.6678735473     -2.0012514281
C     3.6562914793     0.6322677942     0.0136065878
C     3.2476781829     0.6188369931     1.4106358593
C     3.1876956513     1.83812714     -0.5579435676
C     1.3223644446     1.7156808815     2.4441822395
C     2.5440037524     1.8065415923     1.7036430985
C     2.6475861923     2.6643581162     0.5230976644
C     -1.0357081445     2.5972535811     2.2928585852
C     0.4047551752     2.8063640296     2.2517258525
C     -2.6869338123     2.778371666     0.4420112927
C     -2.5752132545     2.8344155014     -0.9769498294
C     -1.3980377386     3.2900858907     -1.6236967863
C     -1.6725021704     3.3772643041     1.2199020608
C     1.0046708035     3.6342787209     -1.0646516506
C     1.6525201998     3.5892995807     0.255598201
C     0.6314716571     3.7648220433     1.2289646944
C     -0.4092082598     3.9458480697     -0.854373583
C     -0.6200236882     4.059539658     0.5553973452


