60

 C     2.1795949298     -3.3191153415     0.051038366
C     1.0280997278     -3.7981769579     -0.5203326242
C     -0.0072124805     -3.923717679     0.5292963736
C     1.8949242766     -3.0214688305     1.4556299362
C     0.4838893294     -3.2872210163     1.6958351602
C     2.4440710209     -1.7835751493     1.7289192976
C     2.8514213917     -2.1981653426     -0.5345644074
C     3.2014211525     -1.3205896746     0.5459016779
C     2.4049830702     -1.655303049     -1.783449576
C     0.4417604265     -3.1936808235     -1.6816285371
C     1.095558744     -2.0940960148     -2.325611696
C     -1.2387685365     -3.5686076461     -0.0456610058
C     -0.9874612672     -3.1748874268     -1.4452341531
C     -2.145957591     -2.8274469125     0.7220106276
C     -0.3268875623     -2.3172571613     2.3820200785
C     -1.6947270526     -2.2288849461     1.9667955467
C     1.7340312738     -0.8234593909     2.561037143
C     0.3203120029     -1.1013150103     2.9086607056
C     2.1955816597     0.4979465065     2.5071057398
C     3.4327638534     0.0499136608     0.3315623792
C     3.080823116     0.9585089388     1.4109432198
C     2.8248975193     -0.3142371646     -2.0350230031
C     3.3667742994     0.5304151395     -1.0030391183
C     2.0687185165     0.5300922217     -2.9102752402
C     0.2303330164     -1.0940082632     -2.9688327788
C     0.7587207179     0.2259757315     -3.2383957286
C     -1.7810975816     -2.192392903     -2.0107493339
C     -1.1716073574     -1.1577000088     -2.7989537603
C     -3.0438144462     -1.8971766307     0.0772068058
C     -2.8940968693     -1.609318326     -1.2788860064
C     -2.4671305052     -1.0276775496     2.1728006321
C     -3.335542977     -0.8158832046     1.0196458235
C     -0.4996393861     0.0200478424     3.1853838457
C     -1.8927761145     0.0634567941     2.8057906464
C     1.3311605986     1.6142904969     2.8355825925
C     -0.0023233402     1.3789003956     3.0962600628
C     2.7850166401     2.2925881921     1.1434880753
C     1.6874940537     2.713049253     1.9817625691
C     2.9035056129     1.9224282911     -1.2680994073
C     2.1254317047     1.9053512031     -2.4275851879
C     2.5384859788     2.7647372137     -0.1984899149
C     -0.0428593922     1.4468730289     -3.031645161
C     0.8135842447     2.4503528166     -2.4403959262
C     -1.991613009     0.0547150908     -2.6418096319
C     -3.0483597818     -0.2428773036     -1.738743827
C     -1.4028285869     1.3713607146     -2.6889100861
C     -3.6363487383     0.4593114905     0.5832013386
C     -3.5292820831     0.7636129765     -0.8511937505
C     -2.2230760499     1.4219328225     2.3815676306
C     -1.0289450577     2.2210086819     2.4825455642
C     -3.1090229423     1.6176613595     1.3151794034
C     0.7301496207     3.3545593754     1.1906484875
C     1.2505286431     3.3921519536     -0.1991467012
C     0.3496037135     3.2305197266     -1.3113761439
C     -0.6697312054     3.157767613     1.4565770562
C     -1.9405008271     2.3914011036     -1.8154021355
C     -3.0422913782     2.0692865584     -0.9818094859
C     -2.7928270412     2.6169578725     0.3515612435
C     -1.0422062828     3.2154600606     -1.0399480654
C     -1.5647055119     3.2856048008     0.3392347652


