60

 C     -2.247838457     -3.5854244533     0.9686950417
C     -2.4429724354     -3.326520632     -0.4667739789
C     -1.2017403914     -3.4987142688     -1.1353603665
C     -0.9156932716     -3.8632149322     1.1986832675
C     -0.2764008867     -4.0020674195     -0.1018686509
C     -0.3718987536     -2.8548947794     2.1282168858
C     -2.6098807659     -2.3845463999     1.669329046
C     -1.4449046398     -1.9186586035     2.3915562303
C     -3.1555968872     -2.1094705954     -0.5846298948
C     -3.2498384316     -1.5060274465     0.7719606492
C     -2.8184452753     -1.2492540459     -1.623286841
C     -0.7147787889     -2.493882526     -2.0606129573
C     -1.6014478256     -1.4387796855     -2.3708326511
C     0.7270533441     -2.2166403757     -2.1819786921
C     1.0310144349     -3.6788559567     -0.1926742276
C     1.5874926515     -3.0341628286     -1.3894810314
C     0.9419355057     -2.3997297748     1.9883565565
C     1.7423597791     -3.0931268993     0.9702868534
C     1.2805690741     -1.005580575     2.3065457571
C     -1.1865830914     -0.543651933     2.5032686917
C     0.2054605386     -0.0812021229     2.6085313527
C     -3.128580929     -0.1090688811     0.9504886274
C     -2.2133452322     0.3654999157     1.9776126078
C     -3.0575752478     0.1639477163     -1.4876860923
C     -3.3667778107     0.7524811434     -0.2176688814
C     -1.1264959198     -0.111433424     -2.7370165454
C     -2.1349995388     0.8367155965     -2.3532174389
C     1.2032789625     -0.8548669527     -2.5388151105
C     0.2423724559     0.2358569828     -2.7213263499
C     2.5366255673     -0.4783125715     -2.1899106759
C     2.8612876811     -2.5812384331     -1.0074605916
C     2.899326426     -2.5395343601     0.4851945213
C     3.3508975911     -1.3753419866     -1.4416877812
C     2.5862974871     -0.4769787544     1.8402508039
C     3.3818652314     -1.2599635043     0.8987185737
C     3.8790358884     -0.6327545982     -0.2798986568
C     2.7728896866     0.9130170527     1.7759224307
C     0.4551607105     1.368045694     2.5950493796
C     1.7600266029     1.8448042689     2.2499430769
C     -1.9610651899     1.7553226296     2.0361621452
C     -0.6274315398     2.2704313271     2.3789201505
C     -3.1483122395     2.1467640961     -0.0845032372
C     -2.5915479259     2.6460913661     1.1503453633
C     -1.8100680514     2.1796120523     -2.1298667954
C     -2.5043867346     2.8862771213     -1.1247206775
C     0.6053816353     1.6461696134     -2.396557373
C     -0.4170749278     2.5952797951     -2.1772638796
C     2.8348127452     0.8675375049     -1.6945582991
C     3.6826774992     0.7251769241     -0.5084126785
C     3.4153908424     1.5320373684     0.6124511168
C     1.9165826835     1.9296897641     -1.7884564463
C     1.8909799209     3.0439051576     1.5041644597
C     2.7802928023     2.7506797453     0.3871435638
C     2.03332789     2.9873210764     -0.8002459047
C     -0.4575351016     3.5092400421     1.6518555916
C     -1.6486659495     3.7133522099     0.8663243086
C     -1.5550339485     3.8132033882     -0.5177552459
C     -0.2759061055     3.6683630697     -1.1830414107
C     0.7815397418     3.7757449709     1.0511177928
C     0.8768870141     3.7813317269     -0.4295255817


