60

 C     -0.8074580112     -4.6500033369     0.6043427055
C     -1.8636703328     -3.812407324     1.0244918987
C     -2.5945604734     -3.3640368344     -0.1158309317
C     -0.6408696788     -4.367723612     -0.8366564731
C     -1.7399052924     -3.6496276332     -1.3035353158
C     0.679119819     -3.8786941048     -1.1036331615
C     0.3778536217     -4.1503609435     1.2003761026
C     1.3682331134     -3.9173953294     0.1919313704
C     -1.329221194     -2.8032508586     1.9631843537
C     0.0912193958     -3.0452830381     2.0901189612
C     -1.8170420232     -1.488642187     1.9592010653
C     -2.9823100719     -2.0421296763     -0.1849482238
C     -2.8291052564     -1.1510946838     0.9505339199
C     -1.5670592151     -2.4230674476     -2.0087787544
C     -2.5252503718     -1.4989219539     -1.4709020648
C     0.8854961972     -2.7273713142     -1.9464458748
C     -0.2632079399     -1.913380933     -2.3835032475
C     2.1296423201     -2.0437562191     -1.7764767363
C     2.3854970075     -3.0212993853     0.4758049089
C     2.9484263726     -2.3157067658     -0.6226215355
C     1.0107749955     -1.9510562341     2.225388579
C     2.2801068634     -2.0749934581     1.5691649944
C     -0.9391187386     -0.3956338322     2.417912137
C     0.4813274147     -0.6155614791     2.4972466712
C     -1.4551990785     0.9700418756     2.3441636366
C     -3.0567797471     0.1827262521     0.6602487789
C     -2.571511811     1.2497609737     1.5010359836
C     -2.4458396204     -0.1319420666     -1.6910293199
C     -3.0722365006     0.6890854603     -0.6969442956
C     -0.1189529314     -0.479759049     -2.5936483525
C     -1.2928507818     0.3964580486     -2.4143839438
C     2.2876341255     -0.6537136262     -2.0914628971
C     1.2004164615     0.1551439799     -2.5048435857
C     3.5312080768     -1.1072100672     -0.1622711325
C     3.0145189199     -0.8997280612     1.1581789161
C     3.2662679256     -0.103939633     -1.1374047017
C     1.3916268917     0.5472127903     2.3605559719
C     2.6230777686     0.4028152808     1.5751488062
C     -0.5672245285     2.0683115394     2.5815795243
C     0.8762356921     1.8401994795     2.505729871
C     -0.8539824104     3.3565410458     2.0877213605
C     -2.6753697199     2.4844077321     0.7648692265
C     -2.8449830738     2.0797597262     -0.648907472
C     -1.855969675     3.5628586249     1.0882547498
C     -1.1540392475     1.7949966796     -2.4115572315
C     -2.0281628256     2.6566242689     -1.6328055379
C     1.3262068303     1.6117709227     -2.3098443127
C     0.1649208576     2.4357305433     -2.4443513427
C     3.1561311386     1.1882746302     -0.7142421325
C     2.9901007074     1.4804818923     0.7114353012
C     2.3346143752     2.12198973     -1.4309252049
C     1.457203839     2.9935457887     1.8291758352
C     0.4015244241     3.9376970501     1.5933415261
C     2.3847059709     2.7623722865     0.8071632709
C     2.0824509622     3.2456076349     -0.5563768164
C     -1.2265377056     4.3265928729     0.0071813616
C     -1.2780948672     3.8379815626     -1.2878613692
C     0.0812472079     3.6954599653     -1.8228703074
C     0.1918696017     4.5163217479     0.3483136404
C     0.9968541263     4.0869204025     -0.7887327535


