60

 C     1.3144095804     4.3757875828     -0.2753487799
C     1.4388427697     3.6677173095     -1.5556280419
C     0.1875266509     3.5438648837     -2.1347218133
C     -0.0854458259     4.4192548322     0.0320866353
C     -0.8027711774     4.014450913     -1.1240276809
C     -0.3311969917     3.6973033954     1.2690652826
C     1.9123940213     3.5343332141     0.6737155239
C     0.9520146411     3.19223473     1.7091296102
C     2.2427127824     2.476209106     -1.3823652686
C     2.5820626488     2.4286748636     0.0302573218
C     1.908796152     1.2661999921     -2.0318961293
C     -0.2569471901     2.2815902301     -2.6131515055
C     0.6142576175     1.1578252787     -2.7109695195
C     -1.8193999687     3.0613980364     -1.0546696553
C     -1.5825351639     2.0509736054     -2.104390215
C     -1.4879375078     2.8748041121     1.4174677618
C     -2.3205866029     2.603991495     0.223995668
C     -1.3916490953     1.8209367387     2.3761361084
C     1.0801622786     1.9651391389     2.3901343613
C     -0.1214612112     1.3913796617     2.8828927836
C     2.776682598     1.198808319     0.7021953903
C     2.1668389242     1.0360152176     2.0183208549
C     2.5288113269     0.05629215     -1.5020932792
C     3.0312977253     0.0336351594     -0.1305188517
C     2.1636190873     -1.1582928559     -2.1005969421
C     0.0047866051     -0.1436966635     -2.8656009207
C     0.9043027199     -1.2604633376     -2.837982416
C     -2.1497723779     0.770357719     -2.0535195311
C     -1.3933270009     -0.3731576321     -2.5564050463
C     -3.0839753606     1.4333710875     0.1822270021
C     -3.1323832037     0.5802904366     -1.021367584
C     -2.2590242243     0.6588694047     2.3440672494
C     -3.1954583821     0.5331836381     1.3178225519
C     -0.2261028398     -0.0242057861     3.1995296122
C     -1.5359195504     -0.5085696395     2.8104073127
C     2.1134601551     -0.2677085548     2.5426046768
C     0.8768315809     -0.8277041328     3.1020953947
C     3.1434605593     -1.2313983475     0.5122809932
C     2.7357689654     -1.3286742578     1.8579773439
C     2.3874709731     -2.4531872728     -1.4714236713
C     2.7850539547     -2.4873818398     -0.1428193742
C     0.4361998968     -2.5772596839     -2.7498142409
C     1.3522524828     -3.3461246296     -1.9284877019
C     -1.8205804694     -1.7328926303     -2.1788284534
C     -0.9068376584     -2.8278506495     -2.3088311
C     -3.459721977     -0.7121165372     -0.6203510649
C     -3.4694759983     -0.7693537064     0.8305444854
C     -2.7858493818     -1.8556536354     -1.1255539741
C     -1.6923814635     -1.7947732335     2.2212578343
C     -2.7285552757     -1.903148976     1.2156353113
C     -2.5027778202     -2.707796729     0.0227388125
C     0.7393951023     -2.2109791685     2.6449981548
C     1.9517472912     -2.5531446438     2.0116594717
C     2.0105839678     -3.3007220146     0.8191762871
C     -0.517309217     -2.6883255139     2.1163437478
C     0.5860410438     -4.0726091459     -1.0158246505
C     -0.8178398524     -3.8322689727     -1.284155105
C     -1.4471018416     -3.6019714769     -0.0348674003
C     0.8295671638     -3.9505776246     0.4007936816
C     -0.4330270367     -3.6228828593     1.0386529913


