60

 C     -1.5044497508     4.4035078398     0.0597873862
C     -2.4071468137     3.5261160884     -0.6550762221
C     -3.0532671909     2.7242555779     0.282812024
C     -1.3825256857     3.8675595789     1.437084517
C     -2.3703625844     2.9091415586     1.6023689078
C     -0.0158156027     3.4938230203     1.6979888923
C     -0.2548026754     4.2619026338     -0.5160071826
C     0.721667988     3.9667068382     0.5231878964
C     -1.6516979379     2.8336552376     -1.6994649372
C     -0.3044120298     3.3401396955     -1.6664566943
C     -1.8565260919     1.4595561257     -1.9679314031
C     -3.2283624152     1.348922224     0.073712238
C     -2.8095789245     0.7172018     -1.138670428
C     -2.0668508527     1.6205578189     2.0988915223
C     -2.8095845178     0.6737229945     1.2834787825
C     0.3371119891     2.2121939592     2.2420414046
C     -0.7373379425     1.2471623173     2.4886081972
C     1.7001907769     1.697551541     1.9820246887
C     1.8735167255     3.3640515208     0.1565400204
C     2.5163090514     2.4257400023     1.057429576
C     0.8236935599     2.5343695468     -1.9659024738
C     2.0361232886     2.833925024     -1.2164132625
C     -0.7353681532     0.6939136     -2.5227219509
C     0.6362353634     1.1705004109     -2.4404887321
C     -0.953072779     -0.6794078434     -2.7245566875
C     -2.813532754     -0.71735467     -1.1440581141
C     -2.1100264191     -1.349808767     -2.210805147
C     -2.5540758949     -0.6881285966     1.3124949949
C     -2.8980529253     -1.4558464496     0.1181173723
C     -0.4561058465     -0.1744597739     2.5794940555
C     -1.5035288601     -1.1340107467     2.2117568128
C     1.9974932821     0.2738764778     2.1811016997
C     0.9213692632     -0.6400003892     2.5706464727
C     3.1122452523     -0.3054132891     1.4700246847
C     3.4724920413     1.7506586182     0.252888234
C     3.0539401198     1.910785454     -1.1633791612
C     3.7726333444     0.4372898782     0.4601517635
C     1.7357495252     0.1790243008     -2.33260887
C     2.9611568691     0.6016540898     -1.7394511266
C     3.6124581998     -0.2955182826     -0.8283999399
C     0.1465692715     -1.6543841709     -2.7378275917
C     1.4395655944     -1.2521298846     -2.2842546022
C     -1.7938677783     -2.7457731501     -2.15319867
C     -0.3568770385     -2.9184875338     -2.4537247996
C     -2.6025750144     -2.8467237881     0.1394320828
C     -2.0914837839     -3.5003736973     -1.0552682699
C     -1.2309053867     -2.5307879167     2.1995272969
C     -1.8467710036     -3.3609764416     1.2174897739
C     1.1534425363     -2.0554614187     2.4231456705
C     0.1112172046     -2.9818987809     2.3726552498
C     2.9982854081     -1.643680629     0.9164110425
C     3.1349133293     -1.5599578295     -0.5510640291
C     2.1141283022     -2.160599256     -1.3638764282
C     2.1341562596     -2.5317094455     1.4455572473
C     0.2248370443     -3.7859051801     -1.4694109959
C     -0.8821015592     -4.2956551468     -0.6888743122
C     -0.8113113524     -4.2991216839     0.6912229605
C     0.3971799272     -4.0044167185     1.3499408335
C     1.4326883586     -3.3471104637     -0.8238102009
C     1.5210076888     -3.5643640292     0.6156877316


