60

 C     -5.3018883834     -0.5138207087     -0.0579547732
C     -5.0373580738     -0.4743492036     1.3038114501
C     -4.7049785065     0.8405741739     1.7775213202
C     -4.8910668759     0.8154254353     -0.5604212262
C     -4.4734343043     1.6188104519     0.599977844
C     -3.9143634345     0.6190794553     -1.5285833958
C     -4.3415041268     -1.4656065007     -0.6032532762
C     -3.6429570386     -0.8557640729     -1.6361545402
C     -3.9280597268     -1.4081757405     1.6454848641
C     -3.4933448451     -2.0556625034     0.4474263041
C     -3.435569654     0.7162920216     2.4514047049
C     -2.9866882642     -0.6820122219     2.4086543112
C     -3.1296990452     2.1633275974     0.668523935
C     -2.5297388248     1.6562705376     1.9154976054
C     -2.742708593     1.4761817374     -1.6391035883
C     -2.2704070745     2.2130296075     -0.451472592
C     -1.7777622724     1.0434461398     -2.5293700807
C     -2.3541513266     -1.3087803871     -2.020830045
C     -1.6774826523     -0.3970970124     -2.8809866976
C     -2.0926783324     -2.264311674     0.2140498818
C     -1.5471537208     -2.122974802     -1.1403686282
C     -1.6055598515     -0.9584017801     2.2528671582
C     -1.1609485056     -1.9225452473     1.263286974
C     -1.1438410185     1.4248156762     1.9931910285
C     -0.6880924925     0.1335144789     2.4471589918
C     -0.8132971269     2.3458390381     -0.2533913082
C     -0.2605624817     2.0588480208     1.0503337371
C     -0.4325378375     1.5768271213     -2.5447869452
C     0.1043695857     2.1971862673     -1.3608813571
C     -0.3761933471     -0.6401027857     -3.2316317567
C     0.3761933471     0.6401027857     -3.2316317567
C     -0.1043695857     -2.1971862673     -1.3608813571
C     0.4325378375     -1.5768271213     -2.5447869452
C     0.2605624817     -2.0588480208     1.0503337371
C     0.8132971269     -2.3458390381     -0.2533913082
C     0.6880924925     -0.1335144789     2.4471589918
C     1.1438410185     -1.4248156762     1.9931910285
C     1.1609485056     1.9225452473     1.263286974
C     1.6055598515     0.9584017801     2.2528671582
C     1.5471537208     2.122974802     -1.1403686282
C     2.0926783324     2.264311674     0.2140498818
C     1.6774826523     0.3970970124     -2.8809866976
C     1.7777622724     -1.0434461398     -2.5293700807
C     2.3541513266     1.3087803871     -2.020830045
C     2.2704070745     -2.2130296075     -0.451472592
C     2.742708593     -1.4761817374     -1.6391035883
C     2.5297388248     -1.6562705376     1.9154976054
C     3.1296990452     -2.1633275974     0.668523935
C     2.9866882642     0.6820122219     2.4086543112
C     3.435569654     -0.7162920216     2.4514047049
C     3.4933448451     2.0556625034     0.4474263041
C     3.9280597268     1.4081757405     1.6454848641
C     3.6429570386     0.8557640729     -1.6361545402
C     3.9143634345     -0.6190794553     -1.5285833958
C     4.3415041268     1.4656065007     -0.6032532762
C     4.4734343043     -1.6188104519     0.599977844
C     4.7049785065     -0.8405741739     1.7775213202
C     5.0373580738     0.4743492036     1.3038114501
C     4.8910668759     -0.8154254353     -0.5604212262
C     5.3018883834     0.5138207087     -0.0579547732


