60

 C     -0.0978276972     -4.3730278238     0.2601184142
C     1.074061767     -4.069856315     -0.3837030547
C     0.7566969964     -3.4594755368     -1.6975447469
C     -1.2024559307     -3.9937496215     -0.6589956579
C     -0.6415546692     -3.2765408228     -1.7982581055
C     -2.1894514499     -3.4267627171     0.1076342233
C     -0.3882285494     -3.780330277     1.5626483227
C     -1.7284228302     -3.2900291569     1.5050074638
C     0.5811242657     -2.955017298     2.1557902588
C     2.1041701934     -3.2690980523     0.2260205753
C     1.8773239093     -2.7665688198     1.5186023152
C     1.6413720311     -2.4049598128     -1.9027134315
C     2.5858658123     -2.3495557113     -0.7840129132
C     1.1649719451     -1.1762127228     -2.4877809904
C     -1.1740770802     -1.9814778776     -2.169632487
C     -0.2641490822     -0.9280808885     -2.5993656777
C     -2.828976622     -2.2266516847     -0.2913501371
C     -2.4297743009     -1.5790264429     -1.5126840152
C     -2.0825559764     -1.996346434     1.9135297656
C     -2.9540737234     -1.4156346084     0.8862535562
C     0.1912601217     -1.6513136092     2.6837276563
C     -1.1210671952     -1.1152107831     2.5302576573
C     2.3499220265     -1.4365412504     1.8289021201
C     1.3263321219     -0.7722702634     2.5866709551
C     3.2162136849     -1.1368428846     -0.4635335243
C     3.1632387777     -0.6851151044     0.9396908326
C     2.0542915274     -0.0952522759     -2.3920942304
C     3.173491296     -0.1331697815     -1.4912681927
C     1.6056274678     1.3015115664     -2.495248001
C     -0.7164003936     0.4860108231     -2.6617057271
C     0.2034458182     1.6110940196     -2.5089872363
C     -2.8461021317     -0.2555641392     -1.6208973263
C     -2.0804157671     0.7397341759     -2.3693165294
C     -3.189863656     -0.0444394846     0.8094299345
C     -3.4755037857     0.4309862762     -0.5179108697
C     -1.323110508     0.3407710819     2.4495268519
C     -2.5214800018     0.8612600844     1.7626209405
C     1.1785520764     0.6374330174     2.5922756868
C     -0.1744760195     1.2102509352     2.6312411966
C     3.2417937019     0.7142775682     1.2062245251
C     2.2661441125     1.3689442037     2.0343438939
C     3.4869949836     1.2191796084     -1.1836312295
C     2.5384661791     2.1170824073     -1.8617143131
C     3.5587347868     1.6250102136     0.1362863193
C     2.0414713208     2.7139084504     1.4867528009
C     2.0925063511     3.12558976     -0.9354479575
C     2.7751205403     2.8505646502     0.2932376843
C     -0.212991636     2.8755608811     -1.8738268417
C     0.7317048151     3.5288810119     -0.9253006384
C     -2.4977602923     2.0154194435     -1.950586856
C     -3.4061627307     1.8137683525     -0.7953999098
C     -1.6101308846     3.0685098745     -1.6537329002
C     -2.6086818387     2.2529256573     1.483505975
C     -3.1003646752     2.7226962347     0.1806690953
C     -2.0941998877     3.6414758815     -0.3874871848
C     -0.3046402759     2.5942912512     2.2746020811
C     0.7838869772     3.283682848     1.5553500442
C     0.2106896584     3.8815704028     0.3748053764
C     -1.5135894508     3.0942662309     1.7959431769
C     -1.1969862236     3.9174653884     0.6024609863


