60

 C     4.5626742381     -0.3260214105     0.2579370812
C     4.1133168949     0.9011109519     0.8040183888
C     3.1601291989     0.6319164103     1.8400471731
C     3.9102910877     -1.3884428147     0.960521385
C     3.0029878385     -0.8249442465     1.9048669843
C     3.3281332773     -2.2796538735     -0.0089432454
C     4.0016057738     -0.3538939679     -1.0671374404
C     3.2370972464     -1.5419770921     -1.2663144129
C     3.6872008174     1.7720836163     -0.2694482758
C     3.4488562482     0.913940247     -1.4308646049
C     2.7918250096     2.7662983145     0.0447514461
C     2.0432437351     1.4878352078     2.0340352493
C     2.0247231315     2.7099198144     1.2811817375
C     0.7515316148     0.8846557772     2.4651819707
C     1.7053740651     -1.425300038     2.1546042069
C     0.5519092745     -0.5638486527     2.4738186027
C     2.2711008178     -3.0656547688     0.3870546871
C     1.4759134502     -2.6967027251     1.5653678657
C     1.356838886     -3.4576282363     -0.6152716337
C     1.9920664433     -1.5151867973     -1.9992705725
C     1.1321754088     -2.6215940752     -1.770361179
C     2.1858099508     0.9965514076     -2.1192430287
C     1.3897190337     -0.2371082995     -2.385795546
C     1.8895830615     3.180923509     -0.9884650946
C     1.5036272543     2.238885504     -1.9955551597
C     0.7714683823     3.3685455586     0.9879381501
C     0.7187231998     3.7228606175     -0.4071063152
C     -0.3955117135     1.7091834746     2.3769444415
C     -0.3936571626     2.9211218366     1.5913722625
C     -1.7307120701     1.183831338     2.345059514
C     -0.8101344876     -1.1062324281     2.3620568433
C     -1.9711539512     -0.2068974     2.3744187202
C     0.1349878992     -3.1451377707     1.3142503637
C     0.1043927403     -3.7151496546     -0.014512319
C     -0.9920010067     -2.4244520894     1.7602229321
C     -0.2925355487     -2.5317673207     -1.970554386
C     -0.9192033978     -3.370095846     -0.9336638156
C     -0.0503666776     -0.1501545618     -2.5492230699
C     -0.9167038259     -1.330819697     -2.3504372537
C     0.0660160108     2.3178391004     -2.1145688742
C     -0.4154574209     3.3026739481     -1.1634082307
C     -0.7023366614     1.1709257459     -2.4536145902
C     -1.6753051839     3.0137416611     0.9106616718
C     -2.5495724404     2.0821435617     1.5317018339
C     -1.6596527705     3.1071433399     -0.5312497745
C     -3.6707352693     1.5725921427     0.8372058915
C     -3.2637350049     -0.643447123     1.8396096183
C     -4.0879106569     0.2498415717     1.1125717737
C     -2.2212983613     -2.7117970701     1.0313794072
C     -2.124800288     -3.031451702     -0.4147834452
C     -3.3283372996     -1.908733045     1.154490441
C     -2.3804596368     -1.199159386     -2.0493709564
C     -4.4366897671     -0.4123755784     -0.1930097367
C     -2.9957415063     -2.1364628176     -1.1335891242
C     -3.9613832835     -1.704026786     -0.1733718548
C     -2.0866597757     1.2635441482     -2.1706969561
C     -2.5809467479     2.2826958781     -1.2550711644
C     -3.6790324407     1.7215245359     -0.5962876093
C     -2.9690584947     0.0995189416     -2.0867225991
C     -4.052229439     0.4522692139     -1.2253584749


