60

 C     0.6441139906     -4.7540936213     -0.275858788
C     -0.5594106527     -4.5681416694     0.4990308248
C     -1.5748654879     -4.1238271431     -0.3622735194
C     0.4160898774     -4.1150400117     -1.5795585251
C     -0.937685179     -3.791629272     -1.6692124088
C     1.3836363553     -3.0682586552     -1.8018111564
C     1.6361531599     -3.9853401301     0.3469389746
C     2.255875749     -3.1258355032     -0.6382591047
C     -0.235413099     -3.7348490268     1.66434001
C     1.1638864285     -3.3688178252     1.5837364042
C     -1.1416055732     -2.7596495126     2.0760417965
C     -2.4170816984     -3.0451777857     -0.0072701085
C     -2.3245510774     -2.4851281642     1.2893573332
C     -1.3542452238     -2.4899397457     -2.0400541496
C     -2.4131116753     -2.0999487305     -1.1190165587
C     1.0014876047     -1.7693384697     -2.2812975104
C     -0.4169122893     -1.4742908909     -2.4401591806
C     1.9016262248     -0.6358230309     -2.0094699972
C     2.8692531348     -1.9945073249     -0.1909301638
C     2.9129381009     -0.8305310116     -1.0356773967
C     1.6140505179     -2.0594920672     1.9465733218
C     2.6814632775     -1.5128335286     1.1648654898
C     -0.6763521409     -1.4672630853     2.5834669977
C     0.6811958769     -1.0704854534     2.5212213793
C     -2.6525532025     -1.1037884338     1.4593918283
C     -1.714946572     -0.495976859     2.3712412844
C     -2.7792231288     -0.767495022     -0.9649590646
C     -3.1059731719     -0.3095191261     0.3808500926
C     -0.8851397762     -0.0935513899     -2.452193563
C     -2.2044195036     0.2003812567     -1.892333895
C     1.4711314524     0.7417833239     -2.2808777059
C     0.058453944     1.0026855171     -2.5882659134
C     2.2398722953     1.8143402332     -1.7539550084
C     3.3210017081     0.2520958921     -0.2007872653
C     2.9743671035     -0.1233442504     1.1599988689
C     3.146312282     1.5432862784     -0.6443682744
C     0.9881983799     0.3804330165     2.5192903553
C     2.2698151065     0.8217818322     1.9685598083
C     -1.4630020547     0.8949447389     2.3883758074
C     -0.0896058432     1.354974934     2.5803507379
C     -3.1518128389     1.0858962225     0.6212600265
C     -2.3791815302     1.7110287798     1.6662858617
C     -2.6064565865     1.5462860076     -1.7417712564
C     -3.1638167486     1.974232949     -0.4727261339
C     -0.4197349917     2.3559579871     -2.473226038
C     -1.7628281301     2.6021588485     -2.1523804432
C     1.6960155539     3.1561065179     -1.5206441677
C     0.3853341317     3.4231768406     -1.8476727865
C     2.9752050841     2.5515695402     0.3255173771
C     2.4655030967     2.1978704493     1.6302196162
C     2.1997953785     3.6298162206     -0.2410453204
C     0.1670105646     2.7419724878     2.2603227101
C     1.4438190204     3.1506777795     1.8865579498
C     1.315714986     4.0809508894     0.7339977969
C     -2.0645225244     3.0730849801     1.2271574868
C     -2.6366566675     3.2635509263     -0.0899159768
C     -1.7968298209     3.6752644029     -1.1309363477
C     -0.4870226917     4.1507114323     -0.9072820719
C     -0.8090491284     3.5724194203     1.500368948
C     -0.0553114769     4.2744770353     0.4508707122


