60

 C     0.1405524007     -0.7330754907     -4.0747842621
C     1.4112008389     -0.8894812306     -3.59021978
C     1.95649098     0.4323617808     -3.2065154484
C     -0.1405524007     0.7330754907     -4.0747842621
C     0.9607614538     1.4223081017     -3.4264550954
C     -1.4112008389     0.8894812306     -3.59021978
C     -0.9607614538     -1.4223081017     -3.4264550954
C     -1.95649098     -0.4323617808     -3.2065154484
C     -0.7194417009     -2.3930244585     -2.4120190424
C     1.7018177743     -1.8285696539     -2.5594158285
C     0.6792967569     -2.6991356594     -2.0881000564
C     2.5754340196     0.2738804566     -1.9632428546
C     2.5137677225     -1.1315781444     -1.586684494
C     2.4963370729     1.3058437868     -0.9705803532
C     0.7194417009     2.3930244585     -2.4120190424
C     1.686148157     2.4822227585     -1.3032552218
C     -1.7018177743     1.8285696539     -2.5594158285
C     -0.6792967569     2.6991356594     -2.0881000564
C     -2.5754340196     -0.2738804566     -1.9632428546
C     -2.5137677225     1.1315781444     -1.586684494
C     -1.686148157     -2.4822227585     -1.3032552218
C     -2.4963370729     -1.3058437868     -0.9705803532
C     -1.3978051588     -3.3923216405     -0.2484158029
C     0.9710092591     -3.3298932293     -0.8426137395
C     -0.0464506243     -3.9130922688     -0.0907441751
C     2.5759095177     -1.5294561586     -0.2278902132
C     1.9693003355     -2.7739711756     0.0826674304
C     2.7401834608     0.9284947957     0.4115844112
C     2.734508744     -0.4975326639     0.801189093
C     2.439990409     1.8993847009     1.4125345466
C     1.3978051588     3.3923216405     -0.2484158029
C     1.8826313237     3.1437415452     1.0541178102
C     -0.9710092591     3.3298932293     -0.8426137395
C     0.0464506243     3.9130922688     -0.0907441751
C     -2.5759095177     1.5294561586     -0.2278902132
C     -1.9693003355     2.7739711756     0.0826674304
C     -2.7401834608     -0.9284947957     0.4115844112
C     -2.734508744     0.4975326639     0.801189093
C     -1.8826313237     -3.1437415452     1.0541178102
C     -2.439990409     -1.8993847009     1.4125345466
C     0.3188664149     -3.8563178203     1.3129795944
C     1.5428688697     -3.0912749582     1.4191417642
C     -0.7981144879     -3.430953808     2.0184462752
C     2.3281024938     -0.8460072776     2.114935399
C     1.6520490785     -2.1005186467     2.4000013225
C     1.8584702391     1.4934513972     2.6970528891
C     1.7816349251     0.1591696018     3.0092949409
C     0.7981144879     3.430953808     2.0184462752
C     -0.3188664149     3.8563178203     1.3129795944
C     -1.5428688697     3.0912749582     1.4191417642
C     0.7370829239     2.384034345     2.9806716715
C     -2.3281024938     0.8460072776     2.114935399
C     -1.6520490785     2.1005186467     2.4000013225
C     -0.5128607061     1.7949506657     3.2657498868
C     -1.8584702391     -1.4934513972     2.6970528891
C     -0.7370829239     -2.384034345     2.9806716715
C     0.5128607061     -1.7949506657     3.2657498868
C     0.5784973758     -0.3963877691     3.6105692322
C     -1.7816349251     -0.1591696018     3.0092949409
C     -0.5784973758     0.3963877691     3.6105692322


