60

 C     1.5040833238     -4.526379102     -0.7026448268
C     0.3360503527     -4.8959622589     -0.087785677
C     -0.8169353963     -4.4100458434     -0.8321554789
C     1.1363339334     -3.7044425664     -1.8649376014
C     -0.3289995012     -3.6101468276     -1.9306332775
C     1.8261651752     -2.5073754269     -1.7560134398
C     2.2248802869     -3.6754640634     0.2418194892
C     2.5296711152     -2.4956551142     -0.4251523836
C     0.2714926356     -4.3627833132     1.2824454633
C     1.4382538807     -3.548068934     1.4779984305
C     -1.7032046837     -3.8363068084     0.1147397768
C     -1.0113727811     -3.7922611544     1.4482288466
C     -2.4573278426     -2.7339083245     -0.2663933723
C     -0.9398337013     -2.3490593478     -2.2116008402
C     -2.1447548806     -2.0393493427     -1.4925924475
C     1.2915926361     -1.2698331851     -2.2359027521
C     -0.1030438398     -1.1854057622     -2.5622663154
C     2.0214228649     -0.0792669566     -1.8743719313
C     2.6277437632     -1.2560237445     0.2541215569
C     2.7497219978     -0.0878057529     -0.5918473939
C     1.30530851     -2.259286711     2.0885684035
C     2.0902574818     -1.1352033462     1.5842795279
C     -1.1464349546     -2.6297334885     2.2182343325
C     0.0248473411     -1.8958774504     2.6148240221
C     -2.8333569696     -1.7070858651     0.6965050356
C     -2.1665955503     -1.6354057479     1.9158515702
C     -2.5968304172     -0.6855818968     -1.3568046899
C     -3.0672462263     -0.4827003289     -0.0104328433
C     -0.6869543952     0.1434278492     -2.6675564825
C     -2.00977357     0.381738     -2.086989532
C     1.5526312291     1.1532111743     -2.3377588416
C     0.1712500943     1.2651630261     -2.7566125034
C     1.9619659951     2.4201762233     -1.7686015748
C     2.9814587246     1.1222007178     0.038481095
C     2.7477710627     2.3996381722     -0.6049850808
C     1.8446399966     0.2055398241     2.0663097436
C     2.5773427638     1.2474036573     1.4465940396
C     -0.3554030276     -0.5057971313     2.7854224189
C     -1.7167939449     -0.3406500064     2.3902116693
C     0.5592426223     0.5622152483     2.6539946262
C     -2.9228991555     0.7839865374     0.5965600987
C     -2.1558845091     0.8877120103     1.8347761516
C     -2.3564752102     1.6824289907     -1.6687118662
C     -2.8812146811     1.8780775602     -0.3089321878
C     -0.2563307443     2.6253208048     -2.4749375292
C     0.8666972756     3.3734237824     -1.9069093589
C     -1.5615015882     2.8386447078     -1.9988396081
C     0.6421941463     4.3420025469     -0.8918582437
C     2.460504424     3.3545587231     0.4309209495
C     2.2242276369     2.5804201347     1.6690573478
C     1.464757809     4.290459209     0.2951066221
C     0.0276903624     1.9180831451     2.5285726059
C     -1.3709595839     2.0863194811     2.0946479696
C     0.9708153315     2.9581333343     2.2252786808
C     0.5595553731     4.1298679905     1.4800892727
C     -2.4756164226     3.127776435     0.1472376622
C     -1.7568883536     3.8124082841     -0.9482081107
C     -0.7129752026     4.522220564     -0.4175330685
C     -1.724915817     3.2719702337     1.3549475885
C     -0.7300474956     4.2783372337     1.0641439617


