60

 C     1.4813861666     -1.2317286093     -3.3614006989
C     1.4908655361     -2.4314314451     -2.7041373711
C     0.1058971516     -2.9515821649     -2.6629628993
C     0.0707253609     -0.9074249259     -3.7100443752
C     -0.7682142126     -1.921659615     -3.1373554655
C     -0.132405628     0.4423167358     -3.5008194534
C     2.0737737163     -0.0860263554     -2.782877081
C     1.1834431614     1.0086249378     -3.1475168448
C     2.643192011     -0.1194272622     -1.4674348419
C     2.0667869503     -2.5437571122     -1.4037942417
C     2.6189464502     -1.3945975605     -0.7394455731
C     -0.076312875     -3.5701756932     -1.4271066219
C     1.1937548983     -3.4600842517     -0.6800016709
C     -1.2834211475     -3.3336124105     -0.7298165141
C     -1.8822285184     -1.5010144576     -2.3387191293
C     -2.1796013853     -2.3219669455     -1.1956700572
C     -1.3166412008     0.9463116137     -2.83053647
C     -2.2163347971     -0.0617512767     -2.2757338371
C     -1.2250966301     2.2869928334     -2.2509477772
C     1.2748815429     2.1851813517     -2.5051824147
C     0.0645139892     2.9574598311     -2.2095026892
C     2.7039557199     1.1590746573     -0.7334216756
C     2.2244852678     2.3314687528     -1.4036414114
C     2.7039557199     1.1590746573     0.7334216756
C     2.6189464502     -1.3945975605     0.7394455731
C     2.643192011     -0.1194272622     1.4674348419
C     1.1937548983     -3.4600842517     0.6800016709
C     2.0667869503     -2.5437571122     1.4037942417
C     -1.2834211475     -3.3336124105     0.7298165141
C     -0.076312875     -3.5701756932     1.4271066219
C     -2.7933056831     -1.7595535331     0.
C     -2.1796013853     -2.3219669455     1.1956700572
C     -3.0599371728     0.3575424101     -1.1954494212
C     -3.2422090986     -0.4804635429     0.
C     -2.1226512819     2.6410850552     -1.191845627
C     -3.0315889175     1.6733581241     -0.7410226643
C     -1.6690636703     3.3768427784     0.
C     0.4051553509     3.8174785494     -1.1646575213
C     1.759437398     3.4648805936     -0.6896186587
C     -0.4289554541     3.9921038722     0.
C     2.2244852678     2.3314687528     1.4036414114
C     1.759437398     3.4648805936     0.6896186587
C     0.4051553509     3.8174785494     1.1646575213
C     1.2748815429     2.1851813517     2.5051824147
C     0.0645139892     2.9574598311     2.2095026892
C     2.0737737163     -0.0860263554     2.782877081
C     1.1834431614     1.0086249378     3.1475168448
C     1.4908655361     -2.4314314451     2.7041373711
C     0.1058971516     -2.9515821649     2.6629628993
C     1.4813861666     -1.2317286093     3.3614006989
C     -1.8822285184     -1.5010144576     2.3387191293
C     -0.132405628     0.4423167358     3.5008194534
C     -0.7682142126     -1.921659615     3.1373554655
C     0.0707253609     -0.9074249259     3.7100443752
C     -3.0599371728     0.3575424101     1.1954494212
C     -3.0315889175     1.6733581241     0.7410226643
C     -2.1226512819     2.6410850552     1.191845627
C     -1.2250966301     2.2869928334     2.2509477772
C     -2.2163347971     -0.0617512767     2.2757338371
C     -1.3166412008     0.9463116137     2.83053647


