60

 C     -0.4086729497     4.8500542219     -0.589514646
C     -1.4874021934     4.191554681     0.0614620972
C     -1.1604856713     3.8783789405     1.4088391908
C     0.7322044946     4.7102842549     0.3050924313
C     0.2829550195     4.118310811     1.5321684791
C     1.764998283     4.0332832117     -0.3872750514
C     -0.1142731363     4.0356113946     -1.7476618366
C     1.23043732     3.6493514751     -1.7228420382
C     -1.9883476248     3.0972594884     -0.7661454057
C     -1.0894848566     2.9598140193     -1.8883407572
C     -2.5197311512     1.9377671807     -0.1866657941
C     -1.4532647764     2.5985587812     1.9191735123
C     -2.288469192     1.6775995168     1.2243117696
C     0.8643559765     2.9339560093     2.046301862
C     -0.2261272832     2.0284899673     2.4353657064
C     2.3969336053     2.8877925538     0.1398104602
C     1.9914754502     2.3168401544     1.4008796763
C     1.6166114503     2.3183368369     -2.0105001207
C     2.4907726245     1.9155107375     -0.9508427841
C     -0.7214225955     1.6477797269     -2.3462692083
C     0.6818708602     1.3197336549     -2.4636924848
C     -2.6385203988     0.784661427     -1.0593793026
C     -1.6546348936     0.5696102304     -2.0928791413
C     -3.307637389     -0.3137881653     -0.5118391026
C     -2.3027777682     0.3050493256     1.6804547073
C     -3.1567300334     -0.5768212153     0.9490001872
C     -0.0475874382     0.6483016114     2.6022182323
C     -1.1960155646     -0.2466684861     2.4076513416
C     2.2253784843     0.906504743     1.6293723924
C     1.2893711673     0.1303232298     2.4256268732
C     2.8039641927     0.5788547566     -0.7301016196
C     2.9793237092     0.1456553224     0.6464771949
C     1.0999722644     -0.0649074238     -2.4086775791
C     2.3290111871     -0.3844885451     -1.7016848723
C     -1.3029757246     -0.8006733853     -2.4280152561
C     0.1119452475     -1.1213548502     -2.58205021
C     -3.2799711859     -1.5603657203     -1.1474728151
C     -2.2021080603     -1.8490568991     -2.030059987
C     -3.155738728     -1.9597559929     1.1450715874
C     -3.3947600956     -2.6097881775     -0.1228867189
C     -1.010864431     -1.7022588283     2.3942575201
C     -1.9751382829     -2.5501480444     1.7483754517
C     1.4592376737     -1.2844164767     2.5210869434
C     0.3076551924     -2.2071559473     2.461242731
C     3.2315026388     -1.2302710161     0.8678925196
C     2.5463810606     -1.9099019741     1.9328365716
C     2.6897486348     -1.7454878244     -1.4728459752
C     3.2463050088     -2.1271471216     -0.2285846156
C     0.5246610937     -2.4874597696     -2.3576268454
C     1.8057726634     -2.7829529549     -1.9032949148
C     -1.6945206456     -3.15851038     -1.5869993119
C     -2.3727401434     -3.5115904333     -0.329197001
C     -1.5349327113     -3.6066926054     0.8714008435
C     -0.3756336232     -3.4504077929     -1.7066562205
C     0.716612834     -3.4009901958     1.7498020809
C     2.1165246383     -3.2410732749     1.4676892128
C     2.6003204453     -3.417180758     0.1844872556
C     1.7173429464     -3.81441339     -0.8469259434
C     -0.1649326508     -3.9544431458     0.7525627592
C     0.3722552321     -4.1050569698     -0.6039839316


