60

 C     0.3054745122     -4.7363459332     0.2153767644
C     -0.1324856489     -4.1576006187     1.5054187333
C     -1.4482016513     -3.7499891032     1.363935171
C     -0.6986097749     -4.3778090316     -0.7790972805
C     -1.7884853119     -3.8635254185     -0.0996285638
C     -0.0957568825     -3.499430424     -1.7742397446
C     1.4548507469     -4.0583342525     -0.1331981063
C     1.3003084676     -3.3812706993     -1.4262549025
C     0.8295219342     -3.188561971     1.974215952
C     1.9181341643     -3.2485881156     0.9976157358
C     0.4230334631     -1.9113600722     2.4899422054
C     -1.8784943294     -2.480440312     1.8036886047
C     -0.9951703375     -1.5533773686     2.4575379438
C     -2.4567229128     -2.668803283     -0.48853771
C     -2.7274826428     -1.9601692217     0.7397813858
C     -0.7997278287     -2.3466894499     -2.2771336722
C     -2.0574231872     -1.9067560892     -1.6338478618
C     0.0089181057     -1.3212350374     -2.8275681878
C     2.0202534895     -2.1900748535     -1.6816272225
C     1.4182856089     -1.2414049397     -2.5497372132
C     2.6433288157     -2.1255286113     0.7327217989
C     2.8528083319     -1.6308191175     -0.6423016651
C     1.3909718971     -0.8052860915     2.4264263812
C     2.5238098137     -0.9824620896     1.593509106
C     0.9977987496     0.5741992605     2.7383001413
C     -1.3880415507     -0.1398981273     2.4850739802
C     -0.4245651217     0.9154762357     2.8149965286
C     -3.0259010511     -0.6323000672     0.7033693236
C     -2.5281433569     0.2522347265     1.7317267984
C     -2.4470573216     -0.4983207462     -1.6892386605
C     -3.0788516064     0.0679744451     -0.5437931577
C     -0.4790515659     0.0254409061     -3.0652787592
C     -1.7213139517     0.4558556008     -2.5381844325
C     1.7858727054     0.1509439166     -2.5448315003
C     0.6615082764     0.9046362809     -3.0553684984
C     3.0948373408     -0.2470862715     -0.5646173765
C     3.0631665179     0.123927172     0.85014392
C     2.600235076     0.7083493996     -1.5312383981
C     1.9073611878     1.6147492322     2.3660336401
C     2.8184666157     1.3927057107     1.2539899918
C     1.4829232944     2.9595294041     2.2255442829
C     -0.8167507228     2.2797812796     2.5980069242
C     0.15818341     3.2987538233     2.371741789
C     -2.6960819139     1.5801641284     1.2236775646
C     -3.0135207433     1.4779053899     -0.2099592253
C     -1.9231438058     2.6089002533     1.7032639616
C     -1.860825335     1.8766166312     -2.3076003282
C     -2.5224336525     2.402767758     -1.0975666292
C     0.5265948538     2.2494159512     -2.7546750176
C     -0.7867665542     2.7459111248     -2.5492541489
C     2.388426938     2.1166878889     -1.1166026154
C     2.6511699267     2.4754734756     0.2754077152
C     1.9509219398     3.4929629108     0.9179865894
C     1.4156237218     2.8959822391     -1.7870279118
C     -0.248078898     4.1246455912     1.2082469218
C     -1.5176283069     3.6931200105     0.7964411793
C     -1.7911503007     3.567115965     -0.603194239
C     -0.725796898     3.7764141527     -1.5082966673
C     0.8597605614     4.1789798742     0.2941591184
C     0.6211133988     3.9158470783     -1.0783799571


