60

 C     0.8932172805     -3.9224442602     1.061648584
C     -0.0773692922     -4.1676461775     0.1023316444
C     -1.3738576244     -3.7642081658     0.613303124
C     0.2342807676     -3.1962173952     2.1538401737
C     -1.1683576837     -3.0710299861     1.8599705689
C     0.9901784841     -2.0636082666     2.4281347709
C     2.1031330082     -3.2452751919     0.7164985971
C     2.2394574562     -2.122845107     1.6158773759
C     2.3970346996     -3.0476983846     -0.657273322
C     0.0630442562     -3.6375313621     -1.2483194813
C     1.2885681607     -3.1337098284     -1.6386868953
C     -2.0629185533     -3.1041934871     -0.4247403237
C     -1.1510853553     -2.9114080907     -1.5773899408
C     -2.9655238644     -2.1171958907     -0.078997493
C     -1.8402485649     -1.8467275343     2.1208231291
C     -2.9472577221     -1.5660309114     1.2498658024
C     0.3675806283     -0.7998113991     2.7241106077
C     -1.0794717268     -0.6908436993     2.6229668706
C     1.2179631857     0.3797840686     2.6519522154
C     2.89582901     -0.9397032159     1.240841286
C     2.4869405905     0.3217297751     1.8795559251
C     3.1493742953     -1.9196038936     -0.9991285083
C     3.4696387202     -0.89930101     -0.087071816
C     1.3264911835     -1.9341887777     -2.465587195
C     2.5540758654     -1.2730088011     -2.1881626328
C     -1.1348595932     -1.6802976301     -2.2710755455
C     0.1710397229     -1.1466678136     -2.7169100731
C     -3.2289164579     -1.0179137748     -1.0052056421
C     -2.2715096887     -0.7519137493     -2.0690157261
C     -3.4985487007     -0.2564250658     1.1388850707
C     -3.7880110441     0.0322062715     -0.2659809872
C     -1.6602048408     0.6504049684     2.4680176029
C     -2.8682468123     0.8457444306     1.6854604921
C     0.5899515696     1.6401024688     2.811848228
C     -0.8286861309     1.7665809553     2.5843436829
C     1.1903879785     2.8440710677     2.3233164534
C     2.9415813396     1.510033015     1.2672387707
C     2.3028468341     2.757278697     1.512594339
C     3.4049552173     0.350245359     -0.8375972642
C     2.6842557204     0.1030656089     -2.0978759232
C     3.2312919562     1.5158072335     -0.175575971
C     0.3564002253     0.3004076519     -2.8753262673
C     1.6037017583     0.9602123991     -2.4847063949
C     -2.1279461955     0.5897814058     -2.4522620685
C     -0.8201414634     1.1082356121     -2.8993739497
C     -3.4638613262     1.3826130591     -0.5267245364
C     -2.9603218571     1.9634599053     0.6988720774
C     -2.8065378604     1.674224023     -1.7388319942
C     -1.0496009109     2.9980933951     1.7767585403
C     0.1747943794     3.6318303649     1.6328004501
C     -2.0004177732     2.9867050602     0.6849807139
C     2.0436629719     3.4522780873     0.2406919856
C     2.4659848182     2.6042961678     -0.792224662
C     1.5952379189     2.3119865199     -1.9183560213
C     0.7064339121     3.9743176799     0.3061981289
C     -0.754233293     2.4628662212     -2.5604835714
C     -1.9457342912     2.7891406261     -1.7622583231
C     -1.534425708     3.4695446749     -0.6086692293
C     0.3796956914     3.0470604122     -1.9557945327
C     -0.1107354718     3.8033413848     -0.7941209197


