60

 C     0.4527190608     -0.5105744043     -4.828562952
C     -0.4527190608     0.5105744043     -4.828562952
C     0.1358666346     1.6575992237     -4.1570846182
C     1.6357925049     -0.0836128035     -4.0328736278
C     1.4377898981     1.2809845459     -3.6201443004
C     1.8584020149     -1.0476058453     -3.0446816705
C     -0.1358666346     -1.6575992237     -4.1570846182
C     0.8350950093     -2.1224525165     -3.254133269
C     -1.6357925049     0.0836128035     -4.0328736278
C     -1.4377898981     -1.2809845459     -3.6201443004
C     -0.8350950093     2.1224525165     -3.254133269
C     -1.8584020149     1.0476058453     -3.0446816705
C     -0.3931971002     2.7887513721     -2.1460028838
C     1.7865181076     1.6660571994     -2.2864118371
C     0.9824954949     2.7024557594     -1.7337609748
C     2.2308525695     -0.7070025806     -1.6760130064
C     2.2908493007     0.6821534512     -1.2997900721
C     2.0369590779     -1.7241925742     -0.6319940142
C     0.3931971002     -2.7887513721     -2.1460028838
C     1.1826730311     -2.8199792901     -0.9405572398
C     -1.7865181076     -1.6660571994     -2.2864118371
C     -0.9824954949     -2.7024557594     -1.7337609748
C     -2.2308525695     0.7070025806     -1.6760130064
C     -2.2908493007     -0.6821534512     -1.2997900721
C     -1.1826730311     2.8199792901     -0.9405572398
C     -2.0369590779     1.7241925742     -0.6319940142
C     1.0231522612     3.0298650113     -0.3526304397
C     -0.3285831951     3.331258117     0.0717802254
C     2.3690414051     1.0427528109     0.1310468974
C     1.8856830293     2.3674399744     0.5566559397
C     2.2307779031     -1.3829266126     0.7834592712
C     2.4782244594     0.0134120074     1.1472214721
C     1.7132477615     -2.2645714251     1.7784222341
C     0.3285831951     -3.331258117     0.0717802254
C     -1.0231522612     -3.0298650113     -0.3526304397
C     0.6780515092     -3.2148599412     1.4029950019
C     -2.3690414051     -1.0427528109     0.1310468974
C     -1.8856830293     -2.3674399744     0.5566559397
C     -2.2307779031     1.3829266126     0.7834592712
C     -2.4782244594     -0.0134120074     1.1472214721
C     -0.6780515092     3.2148599412     1.4029950019
C     -1.7132477615     2.2645714251     1.7784222341
C     1.6285668133     2.6432847078     1.9377432438
C     0.360551726     3.1779318191     2.3474079342
C     2.3095973983     0.3757426699     2.5492219175
C     1.9792990768     1.6783733035     2.9263299483
C     1.3913751303     -1.8366948866     3.1362970781
C     1.6615005371     -0.539622298     3.519379473
C     -0.360551726     -3.1779318191     2.3474079342
C     -1.6285668133     -2.6432847078     1.9377432438
C     0.1115673488     -2.4145646904     3.4990987153
C     -2.3095973983     -0.3757426699     2.5492219175
C     -1.9792990768     -1.6783733035     2.9263299483
C     -0.9145296956     -1.5974403385     3.94679481
C     -1.3913751303     1.8366948866     3.1362970781
C     -0.1115673488     2.4145646904     3.4990987153
C     0.9145296956     1.5974403385     3.94679481
C     0.6725954583     0.2307937932     4.2707869436
C     -1.6615005371     0.539622298     3.519379473
C     -0.6725954583     -0.2307937932     4.2707869436


