60

 C     0.1169241521     -4.1948089322     -0.6102642635
C     1.0368535936     -4.0574169061     0.4214554501
C     2.2104831455     -3.3592206208     -0.08950525
C     0.6589980896     -3.4955306923     -1.7740221191
C     1.9354237736     -2.9286919043     -1.4200452792
C     -0.3561359895     -2.6712644349     -2.2643516988
C     -1.2544833584     -3.8111592477     -0.4245667258
C     -1.5980601792     -2.9117926691     -1.5122342758
C     -1.6945269213     -3.5046063184     0.8789454597
C     0.6467255712     -3.4245436182     1.6603721432
C     -0.6990086451     -3.2047032438     1.9074322001
C     2.6028155835     -2.403892472     0.8798704132
C     1.6051681443     -2.3589252382     1.9320821402
C     3.1999818521     -1.2176626767     0.445275152
C     2.2751081358     -1.5867210122     -1.8297154516
C     3.1259525583     -0.8476056602     -0.9588761121
C     -0.0449397283     -1.354077401     -2.784043731
C     1.3161514372     -0.826659916     -2.6415064897
C     -1.1273738978     -0.4502036099     -2.8733661057
C     -2.5217889676     -1.8491835227     -1.3299522591
C     -2.3344128376     -0.6545014681     -2.1014549395
C     -2.7227122367     -2.523395558     1.023125321
C     -3.1315805778     -1.6930731293     -0.0333995818
C     -1.0995312195     -1.942791285     2.5591590601
C     -2.3924431037     -1.6443958398     2.1223541055
C     1.23715481     -1.1016447753     2.5119326834
C     -0.1704915618     -0.8659734035     2.8097566131
C     3.1039524212     -0.0396135708     1.2324650506
C     2.1199040512     0.0410914442     2.2715806678
C     3.2169060823     0.5838427425     -1.0099046137
C     3.3086969778     1.0906972908     0.3389063099
C     1.4858270206     0.588447987     -2.7332118207
C     2.4551393345     1.2984927128     -1.9348847568
C     -0.920465611     0.9697828038     -2.9862436924
C     0.3686798238     1.4797705428     -2.931402146
C     -2.8086468624     0.6340673621     -1.6736476038
C     -1.988633174     1.6467244127     -2.2889001149
C     -3.3454611561     -0.3301637393     0.5005841095
C     -2.8058046766     -0.3062576592     1.8193703525
C     -3.2641238392     0.8189582961     -0.3168695984
C     -0.6983903279     0.5060137336     2.8323544933
C     -2.0446098231     0.7886300221     2.2933950061
C     1.6282206664     1.3408273357     2.5784538871
C     0.23557677     1.5670000195     2.8241097739
C     2.8348082363     2.359474975     0.6607145612
C     2.1177057366     2.4992344102     1.8717314592
C     1.9363757201     2.6237966522     -1.6068954589
C     0.635989471     2.7508841947     -2.2508711157
C     2.1475568461     3.1786367773     -0.346944259
C     -1.7537270076     2.8905065666     -1.6685432497
C     -0.3905799527     3.4596060232     -1.6478624935
C     -2.9261448238     2.0405290076     0.3427288271
C     -2.2932327859     2.0227374837     1.6307144851
C     -2.3225357888     3.127365732     -0.4014739909
C     -0.1031317478     2.9181382795     2.301010478
C     1.0654892498     3.456243448     1.6986328112
C     1.061619811     3.8933763517     0.3238415006
C     -0.1745051624     4.0545195106     -0.3251535684
C     -1.3299881281     3.1194365502     1.6757396724
C     -1.3727189738     3.8116479566     0.4220186783


