60

 C     -1.9590361222     -3.8954190105     -0.5212825655
C     -0.9563283741     -4.0702925858     0.4537661228
C     -1.2319689684     -3.2079122326     1.587073565
C     -2.8344913363     -2.8648309899     -0.0902024615
C     -2.4357427497     -2.4631522471     1.2479761876
C     -2.8053760521     -1.8463306409     -1.0775882535
C     -1.3094551678     -3.4878438888     -1.7522553736
C     -1.8166851642     -2.2161528884     -2.1138564792
C     0.3386623648     -4.0378955842     -0.18103322
C     0.1076573421     -3.6637048505     -1.6001652724
C     1.3959244697     -3.4577886746     0.5005596623
C     -0.1602407001     -2.5466679694     2.249111289
C     1.1900545515     -2.7562978912     1.7645347388
C     -0.4342880596     -1.2772422292     2.8456180687
C     -2.6005268163     -1.1246315942     1.6472297264
C     -1.6607574521     -0.611394712     2.6013659852
C     -3.0008583862     -0.4940195711     -0.7394588481
C     -3.1183947307     -0.1561455648     0.6754711695
C     -2.4956453776     0.5203184543     -1.6632260116
C     -0.9536181508     -1.1954647816     -2.6289655408
C     -1.3254079154     0.2059222984     -2.4768142433
C     0.9534727317     -2.7334556435     -2.1853975592
C     0.4240481929     -1.5190519754     -2.7742854166
C     2.4368856504     -2.7390252576     -0.220799066
C     2.213777533     -2.3694775334     -1.5435358879
C     2.1753610435     -1.7346567264     1.8815988815
C     3.0193742927     -1.7747463856     0.687894311
C     0.5955120375     -0.251765738     3.0144516999
C     1.9152704004     -0.4688719712     2.5395243987
C     -1.4241209239     0.8167684614     2.7579195219
C     -0.0112445244     1.0440394523     2.9825434069
C     -3.0865375952     1.2156734772     1.0319854757
C     -2.1844200401     1.7192584072     2.0730461567
C     -2.7580428549     1.8753865018     -1.3247289251
C     -3.1074399441     2.1925536346     0.0352798796
C     -1.9168379156     2.912809069     -1.7939947584
C     -0.3173316099     1.2410780339     -2.6678998923
C     -0.6741913968     2.6044780915     -2.3781129751
C     1.4331101116     -0.4894533973     -2.6742655001
C     2.5725284771     -1.0326099547     -1.9806208201
C     1.1023276686     0.8872527441     -2.5966130892
C     3.6021816597     -0.6143726237     0.2057512453
C     3.3546639245     -0.2111212323     -1.1755205155
C     2.6324723268     0.6921681435     2.1145687169
C     3.5576415219     0.5787053977     1.003769276
C     0.6386957572     2.1778513984     2.4026948814
C     2.0008456069     1.9841151182     2.039829715
C     -1.6040898311     2.9999833338     1.6220448994
C     -2.3414066404     3.365908069     0.4618470798
C     -1.6987221891     3.876370533     -0.6754059778
C     -0.180020251     3.1963864191     1.6861858493
C     0.3080638089     3.4836750361     -1.7687076776
C     -0.3475150345     4.1543589638     -0.6099569821
C     0.4218583863     3.8569465817     0.5470863791
C     2.0521754816     1.7730083035     -1.9044830737
C     3.128780587     1.2096355975     -1.1828390481
C     3.4062780035     1.6916853827     0.1687555848
C     2.5233565928     2.6151760627     0.8201988129
C     1.5469640976     3.0370678686     -1.3960237161
C     1.7027979524     3.3832159107     0.0483568632


