60

 C     0.0230710374     -4.7181168079     -0.0343260755
C     -1.0925642463     -4.4158277544     0.6858193629
C     -2.0356496956     -3.6428511827     -0.1431722876
C     -0.1166626382     -4.0490066914     -1.3511840574
C     -1.402523684     -3.3685613771     -1.4110289475
C     1.0036985769     -3.2569691975     -1.5249935065
C     1.1541488419     -4.1055052196     0.6601590802
C     1.8362143875     -3.332496087     -0.2758362587
C     -0.763350421     -3.6525034321     1.8937132026
C     0.671122613     -3.4107727156     1.8502989599
C     -2.4505414019     -2.5694942007     0.647260968
C     -1.6187107571     -2.5381406772     1.8778142504
C     -2.8350513677     -1.3553385808     0.0490674901
C     -1.5125108397     -2.0519809108     -1.9496475385
C     -2.5130150041     -1.1850747042     -1.3503628141
C     0.9342812314     -1.9971138268     -2.2402276805
C     -0.3454618006     -1.3780314686     -2.518833337
C     2.0724416117     -1.1876471195     -2.1070733913
C     2.5628696262     -2.1853805491     0.1177156974
C     2.9577799979     -1.3472413581     -0.9634135674
C     1.1696181032     -2.1210644907     2.1573089774
C     2.3120333751     -1.5813857001     1.4085391054
C     -1.1988075497     -1.2626917943     2.3600974255
C     0.214620803     -1.1281284492     2.6800415697
C     -2.9295883483     -0.1858824813     0.9042531308
C     -1.9961992857     -0.0947102289     2.0265593802
C     -3.3806061451     1.0017329682     0.2843007674
C     -2.6642922833     0.1112271427     -1.8902510029
C     -3.3223887755     1.0933257699     -1.144831072
C     -0.3805075352     0.0652472374     -2.8234520374
C     -1.6022294422     0.7451958476     -2.6595338887
C     2.0764171059     0.2200645721     -2.4985588713
C     0.8478639526     0.8766715366     -2.8031818161
C     3.4963551779     -0.081916299     -0.7047153605
C     3.0670838535     0.866417672     -1.739076284
C     2.7288196255     -0.1964898626     1.6184890462
C     3.4022338677     0.529651873     0.5514361907
C     0.6863131396     0.1575706426     2.96006786
C     1.9970010105     0.5932739414     2.5359472209
C     -1.4988393599     1.2220537345     2.4099509842
C     -0.1881473062     1.2996435914     2.9383573397
C     -2.9868093807     2.2912758876     0.7750842401
C     -2.0059127709     2.4166902576     1.7451508945
C     -2.7803030413     2.4028820226     -1.5191646014
C     -1.6787959246     2.1835785     -2.4112169606
C     -2.6301819843     3.1593232012     -0.3703895699
C     0.7719691554     2.2683814603     -2.4380314508
C     -0.5048302187     2.9135505808     -2.1961911478
C     2.8472131136     2.1128790465     -1.1327296273
C     3.1386246991     1.9619763924     0.2984527562
C     1.7461028123     2.8690818821     -1.5589242084
C     1.940641712     2.0242825166     2.3990958595
C     0.6333209473     2.4576723509     2.6693418827
C     2.3967776636     2.6934662416     1.2028175863
C     -1.0770909528     3.5013900292     1.3066131173
C     -1.3994367686     3.8165373141     -0.0737939489
C     -0.3667355786     3.7842208394     -1.0396397542
C     1.0182263529     3.6958530156     -0.6074848127
C     0.2393898003     3.4626952591     1.7153477777
C     1.3314902131     3.6025099403     0.7521637528


