60

 C     -2.4718010531     -3.7458848732     -0.3188450707
C     -1.1391319565     -4.1127556184     -0.6985121181
C     -0.3523690608     -4.2243461626     0.4661807075
C     -2.3876964648     -3.3076621952     1.0836304492
C     -1.1405488513     -3.6606205569     1.5922810758
C     -2.8141390639     -1.9378485411     1.2020099463
C     -2.7817313249     -2.5779777167     -1.0351488708
C     -3.1771771717     -1.5153092812     -0.14236044
C     -0.6653553928     -3.1909410373     -1.7456289424
C     -1.7318678535     -2.2597296354     -1.9909817924
C     0.6713789305     -2.7445832936     -1.7939171237
C     0.9248002889     -3.6598748034     0.5057287285
C     1.5530434887     -3.16372538     -0.6962484863
C     -0.3211957665     -2.6923975148     2.2320414856
C     1.0175312548     -2.8091762935     1.6865466096
C     -2.1001437892     -0.9988713033     1.9933422063
C     -0.7970534741     -1.3829718334     2.5306716177
C     -2.3893465417     0.4180081536     1.7434602624
C     -3.0956010142     -0.1885213252     -0.5563062105
C     -3.025825619     0.8311717922     0.479535316
C     -1.4927530312     -0.91168552     -2.3328615208
C     -2.453565491     0.0838381706     -1.8393211953
C     0.9359267116     -1.427854076     -2.4053604806
C     -0.1479072952     -0.4879575281     -2.6287144218
C     2.2469267803     -0.8933488465     -2.3046727144
C     2.7303460163     -2.4510350434     -0.4715012887
C     3.2075353652     -1.5175998291     -1.4528084008
C     1.977360129     -1.7790933383     1.7914258601
C     3.0158372828     -1.8205427942     0.8129977774
C     0.1951790492     -0.3406638634     2.7823399799
C     1.5892671025     -0.5116848201     2.4058084582
C     -1.6202125804     1.3630414729     2.4306499874
C     -0.3144348213     0.9755595251     2.9598869303
C     -1.535326248     2.7600488948     1.9867386608
C     -2.9703036361     2.1766082348     0.0621208475
C     -2.2059846252     3.1764096865     0.8157451284
C     -2.2396978145     1.4096224688     -2.1746560343
C     -2.7511368941     2.4584940729     -1.3301625261
C     0.1386313906     0.9612291947     -2.6823360165
C     -0.9379280367     1.8526522107     -2.6513462177
C     2.4888875397     0.5474420761     -2.1784929644
C     1.4481014448     1.470983604     -2.2521983195
C     4.0903246646     -0.5551557105     -0.8641949563
C     3.8205606116     -0.6629869774     0.53823171
C     3.5915200915     0.7206728076     -1.2467816274
C     2.3618760786     0.6745443632     2.0435333362
C     3.3714026517     0.5896469656     1.0403485688
C     3.3114424925     1.5098584651     -0.0991654017
C     0.5288198932     2.1001501065     2.80680778
C     -0.2148779053     3.1973554904     2.201986094
C     1.7664704298     1.9621081856     2.1747822948
C     1.5100345714     2.6621408758     -1.3821410719
C     2.3401835569     2.5411180423     -0.1660518672
C     0.5620871007     3.7222683842     1.1241373199
C     1.7751015051     2.9398117622     1.0628271423
C     -1.520860294     4.0122988931     -0.1221341402
C     -1.9294224001     3.6143045216     -1.4543890335
C     -0.7601907689     3.1976811616     -2.1301869965
C     -0.0863612102     4.0859770881     -0.0705671594
C     0.4013710277     3.5177585416     -1.3378030712


