60

 C     0.4172012148     -4.9258777738     -1.1253652257
C     -0.3685097411     -5.3220564926     0.
C     0.4172012148     -4.9258777738     1.1253652257
C     1.6989946747     -4.2709375674     -0.6930349011
C     1.6989946747     -4.2709375674     0.6930349011
C     1.8229733701     -3.0190794978     -1.3912405797
C     -0.267032665     -4.0019894321     -1.919610609
C     0.6145105301     -2.8901633725     -2.2099575782
C     -1.5401675984     -4.4621904382     0.
C     -1.5154436715     -3.6707736667     -1.2080233439
C     -0.267032665     -4.0019894321     1.919610609
C     -1.5154436715     -3.6707736667     1.2080233439
C     1.8229733701     -3.0190794978     1.3912405797
C     0.6145105301     -2.8901633725     2.2099575782
C     2.2634567191     -1.8457655182     -0.7312678761
C     2.2634567191     -1.8457655182     0.7312678761
C     2.0175972032     -0.5734111942     -1.3836444823
C     0.0902336452     -1.6349807066     -2.483580577
C     0.9658486901     -0.4891467672     -2.3406993943
C     -1.962014449     -2.3327655889     -1.2283287841
C     -1.3238102356     -1.4076187124     -2.1708588874
C     -1.962014449     -2.3327655889     1.2283287841
C     -2.4286999956     -1.7019328033     0.
C     0.0902336452     -1.6349807066     2.483580577
C     -1.3238102356     -1.4076187124     2.1708588874
C     2.0175972032     -0.5734111942     1.3836444823
C     0.9658486901     -0.4891467672     2.3406993943
C     2.4735154623     0.6539935046     -0.7364377302
C     2.4735154623     0.6539935046     0.7364377302
C     2.3125021952     1.8712868702     -1.3996446498
C     0.4605474899     0.8131046559     -2.7093263991
C     1.2896522568     1.9574811143     -2.4569555014
C     -1.7702900066     -0.0954304012     -2.22144726
C     -0.9454172349     0.9867717654     -2.7335360951
C     -2.7487994393     -0.2912181681     0.
C     -2.5987424789     0.4643394606     -1.1980515971
C     -1.7702900066     -0.0954304012     2.22144726
C     -2.5987424789     0.4643394606     1.1980515971
C     0.4605474899     0.8131046559     2.7093263991
C     -0.9454172349     0.9867717654     2.7335360951
C     2.3125021952     1.8712868702     1.3996446498
C     1.2896522568     1.9574811143     2.4569555014
C     2.3352692661     3.1544549294     -0.7089171874
C     2.3352692661     3.1544549294     0.7089171874
C     0.7400895906     3.2383524046     -2.4240367333
C     1.4359502503     4.034395487     -1.403669072
C     -1.4992849812     2.2263474726     -2.2756029357
C     -2.424686537     1.904078388     -1.2103995339
C     -0.6889267491     3.3870230402     -2.2236034524
C     -2.424686537     1.904078388     1.2103995339
C     -1.4992849812     2.2263474726     2.2756029357
C     -2.3957276588     2.66891236     0.
C     0.7400895906     3.2383524046     2.4240367333
C     1.4359502503     4.034395487     1.403669072
C     -0.6889267491     3.3870230402     2.2236034524
C     0.476712065     4.7813951719     -0.7000150428
C     -0.8589359708     4.2801727341     -1.1449140985
C     -1.6390354575     3.9179718443     0.
C     0.476712065     4.7813951719     0.7000150428
C     -0.8589359708     4.2801727341     1.1449140985


