60

 C     1.3749478719     4.0767552049     0.3297435628
C     0.0282359079     4.1246919461     0.5804919289
C     -0.717069453     4.0037575976     -0.695611522
C     1.5221751416     3.8162133508     -1.1214022234
C     0.2157824248     3.5686118171     -1.6856812547
C     2.5098356773     2.8733210637     -1.2565074324
C     2.1783113912     3.1117880069     1.040293899
C     3.0660629347     2.5578748439     0.0690810824
C     1.5476713076     2.2211615291     2.0066844884
C     -0.6374748766     3.3161951013     1.5613378563
C     0.0872342463     2.2907725256     2.2555115141
C     -1.9175582288     3.3460595486     -0.4387621262
C     -1.9468615492     3.0196152752     1.0101384864
C     -2.3359652601     2.355076883     -1.3346791011
C     -0.049675017     2.3300689669     -2.3859643998
C     -1.389949413     1.8419555241     -2.2890270529
C     2.298116574     1.6273490211     -1.9496278513
C     1.0250750141     1.3200232402     -2.5218951312
C     3.4031054814     1.2040605987     0.0735853284
C     3.0132535177     0.6116006933     -1.2151352866
C     2.1438730904     0.9487882027     2.1564648837
C     3.1366920872     0.4560284896     1.2205010697
C     1.4295430491     -0.2110186495     2.660352932
C     -0.6521733262     1.0896098822     2.6867351143
C     0.0309708167     -0.2017825383     2.8649116973
C     -2.6553097974     1.9415556418     1.4495955041
C     -2.0519627955     1.03166502     2.4097558544
C     -3.1725328291     1.2557749511     -0.8814482507
C     -3.4378862816     1.1182053275     0.5027611886
C     -1.6968666667     0.4509119807     -2.4754039447
C     -2.8487941835     0.0912053048     -1.635244887
C     0.7066020785     -0.0922196979     -2.6941173832
C     -0.6989539467     -0.4852608204     -2.781908312
C     2.7089716472     -0.7477428828     -1.3284843131
C     1.6646010252     -1.1154453685     -2.2781685734
C     3.0059528769     -0.955961404     1.1129288298
C     2.083485602     -1.3858897109     2.1581200105
C     2.9482205742     -1.6008782135     -0.1487090164
C     1.4295144177     -2.6105388025     2.0792055173
C     -0.689795207     -1.4953233721     2.6791398904
C     0.0072948782     -2.6653065486     2.2986265215
C     -2.721094589     -0.2146326074     2.2537481052
C     -3.5462657759     -0.1626990258     1.0633817716
C     -2.063853072     -1.4481203623     2.2841060821
C     -2.9725340187     -1.2237730365     -1.0730315391
C     -3.3167927169     -1.3529398822     0.3178794086
C     -2.5292598972     -2.2406478008     1.1441205306
C     -1.071234454     -1.8658954606     -2.5735422378
C     -2.1484833479     -2.230388992     -1.623251435
C     1.2633023467     -2.4908268737     -2.2840258918
C     -0.1070491156     -2.8432694764     -2.5228801518
C     2.4244043186     -2.9411103387     -0.1562893277
C     1.7618097145     -3.4823728426     1.0127787699
C     1.7305669642     -3.3963402304     -1.2867964988
C     -0.5379857777     -3.628170735     1.3181185577
C     -1.7374137147     -3.2749661221     0.5937661462
C     -1.7101960282     -3.361319666     -0.8615900882
C     -0.5295951084     -3.8553390094     -1.5161379243
C     0.5712415309     -4.1908320382     0.6226635355
C     0.5737319392     -4.2296851294     -0.8012069114


