60

 C     -0.7559582987     -5.1755388296     -0.1951252276
C     0.439816946     -4.939098176     -0.8237167528
C     1.4412306343     -4.4408314756     0.0917239338
C     -0.577533358     -4.6832901286     1.1876250913
C     0.7775133163     -4.1357180623     1.337329034
C     -1.6070790847     -3.7954570386     1.4373430584
C     -1.7263962404     -4.2661699059     -0.8450307133
C     -2.3922349529     -3.5965465253     0.1625481641
C     0.2941786917     -3.9219970235     -1.8957403722
C     -1.0550573481     -3.4551268386     -1.892356068
C     2.1237473884     -3.4011039733     -0.5937084248
C     1.3632685799     -3.0143817979     -1.818000157
C     2.6321576011     -2.3782324419     0.1568458979
C     0.9909447336     -2.8378973043     1.9550050366
C     2.1196711889     -2.1101302296     1.4910226159
C     -1.4248109923     -2.4995238288     2.0098761998
C     -0.1384481809     -1.9663370044     2.3459024839
C     -2.6587175718     -2.2230822784     0.0501975166
C     -2.3090127731     -1.6028418345     1.3153544473
C     -1.2868322486     -2.0507833381     -1.9878532478
C     -2.316538737     -1.478927192     -1.1273529158
C     1.1618085329     -1.6252032684     -2.0936279892
C     -0.1769264963     -1.1268142336     -2.295176655
C     2.8842268776     -1.1051236982     -0.4566315742
C     2.1426090044     -0.6741873454     -1.5850353064
C     2.3078850574     -0.7126909063     1.7355301015
C     3.0818968902     -0.1887716661     0.6231821097
C     0.0003620685     -0.4967839513     2.4308207888
C     1.3037861749     0.1408747557     2.2721600702
C     -2.1953422961     -0.2336234553     1.3999063032
C     -1.126279784     0.3787148067     2.1520323021
C     -2.440391361     -0.0823141882     -1.0225785974
C     -2.7258968709     0.4848637999     0.2698509842
C     -0.4021108323     0.3188374096     -2.2964631019
C     -1.7142798035     0.8075162139     -1.9302660563
C     1.963005645     0.7582903843     -1.7732720401
C     0.698308894     1.2910557824     -2.2406047765
C     3.1264651448     1.1315855104     0.3681590493
C     2.7919269802     1.6144376482     -0.9764842695
C     1.446992278     1.6013998119     2.0990205268
C     2.5591018206     2.0629568997     1.3081433928
C     -1.0240948482     1.8371789507     2.1042422519
C     0.2800535771     2.4901945717     2.1799674436
C     -2.8219432784     1.851062409     0.4016538538
C     -2.1069723506     2.5408945008     1.4517309349
C     -1.9715820474     2.1795870949     -1.8352140852
C     -2.8483659424     2.677872423     -0.7777825882
C     0.4223449182     2.7443869446     -2.1214779401
C     -0.9453651006     3.1839469962     -2.0309267103
C     2.5102967837     2.9708789503     -0.8446320765
C     2.5099135645     3.2999311478     0.6069770891
C     1.4102252384     3.6004196059     -1.4662649826
C     0.3835027336     3.8501156453     1.6670527439
C     1.4932292239     4.1827008337     0.8130597599
C     0.9615307921     4.6132552393     -0.5140040182
C     -1.9789903559     3.8958601087     0.9737370792
C     -2.4599604677     3.9658606104     -0.428270123
C     -1.3328296491     4.3406926762     -1.2312225064
C     -0.7417417755     4.4997570392     1.0547023827
C     -0.3603081337     4.9033994695     -0.3538833709


