60

 C     -1.3145182006     4.3011060638     -0.5326298804
C     -2.1861882559     3.5459749205     0.2836242025
C     -1.5230405866     3.1828396838     1.4999619035
C     -0.0500756872     4.3629493597     0.1217874389
C     -0.1428901027     3.6788627504     1.3789479847
C     0.9574088479     3.9031615693     -0.7980709901
C     -1.1112496385     3.4871346419     -1.71266462
C     0.2732471644     3.2608125776     -1.9361459948
C     -2.7967145319     2.4892824814     -0.5108719161
C     -2.0390786188     2.4026435956     -1.7681528148
C     -3.2012228089     1.3432449053     0.1230066344
C     -1.8043957439     1.9157202503     2.0948754633
C     -2.8099829873     1.0698358944     1.4930828595
C     -0.7395172759     1.2420911794     2.7781227393
C     0.9529408878     2.8671502532     1.8460587786
C     0.6356524601     1.6882641136     2.6134478707
C     2.1151357349     3.3208479268     -0.3023686166
C     2.1418443161     2.7954591038     1.0609257778
C     2.7410508125     2.3366881147     -1.1091203807
C     0.7079755399     1.9875876992     -2.4286287421
C     2.0566984722     1.620696099     -2.1116861082
C     -1.6489654675     1.1323367033     -2.2601275128
C     -0.2521652691     0.911238469     -2.6512863795
C     -3.201636277     0.0963661421     -0.6020575511
C     -2.4577419696     -0.0129496065     -1.8171120618
C     -2.7508724712     -0.3470212707     1.6084698203
C     -3.1386121942     -0.9638160895     0.347400999
C     -0.7272613755     -0.165525662     2.9552489088
C     -1.7433657487     -0.9980424202     2.4027120881
C     1.4926615351     0.5429289577     2.6906980484
C     0.6660719429     -0.6090448164     2.925753405
C     2.9802450447     1.5875674403     1.0656528554
C     3.415909726     1.3788328196     -0.2591227002
C     2.6549849243     0.437396816     1.8662822982
C     2.4761326746     0.2187219991     -2.0149166278
C     3.3863677505     0.1041163111     -0.8730743591
C     0.2325633512     -0.4586659066     -2.7419655367
C     1.6212620247     -0.8247943167     -2.3515113615
C     -2.0462842333     -1.3011310147     -2.1748185516
C     -0.7274532135     -1.5029399917     -2.7307973642
C     -2.7413125533     -2.2802160154     -0.0165162891
C     -2.3754551055     -2.4817230371     -1.3884391354
C     -1.4341760709     -2.3511458618     2.1005986156
C     -2.032055316     -3.0437405607     0.9944612042
C     1.0192184216     -1.906535945     2.4984386033
C     -0.0581885865     -2.8530365159     2.2497230487
C     2.9768378279     -0.855529331     1.3489645078
C     3.3004470916     -1.0052286879     -0.0537511985
C     2.2116582679     -2.0278083493     1.7006240977
C     1.8960153348     -2.1563882048     -1.74162832
C     2.6778762487     -2.2011236825     -0.5526045066
C     2.2304392663     -2.9635919216     0.5956609225
C     -0.3640863033     -2.8486864127     -2.4426071568
C     -1.4208834833     -3.5014117718     -1.7339904964
C     0.927160612     -3.2009122886     -1.8873470481
C     -1.1232609816     -4.0937865204     0.6140422729
C     0.113238216     -3.9357291948     1.3841821575
C     1.2138975681     -3.9170001171     0.4479095829
C     -0.7965010745     -4.2671381695     -0.7274415874
C     0.6842098678     -4.1371954589     -0.8592090811


