60

 C     0.7308447357     0.1278162776     4.8542116052
C     -0.7308447357     -0.1278162776     4.8542116052
C     -0.9703172007     -1.3307238627     4.1936077351
C     1.3975745846     -0.9459831736     4.1806013355
C     0.3556000599     -1.8701269744     3.8101576527
C     2.1821390478     -0.3731169444     3.106647036
C     0.9703172007     1.3307238627     4.1936077351
C     1.9125915902     1.059757286     3.1118451504
C     -1.3975745846     0.9459831736     4.1806013355
C     -0.3556000599     1.8701269744     3.8101576527
C     -1.9125915902     -1.059757286     3.1118451504
C     -2.1821390478     0.3731169444     3.106647036
C     -1.8366082533     -1.7621440403     1.8893253907
C     0.4465197057     -2.5089188732     2.5943605432
C     -0.7248421429     -2.6750548464     1.7387490659
C     2.3004242368     -1.0335930073     1.8515702764
C     1.5517041692     -2.2530215768     1.6979370631
C     2.5513855502     -0.2691779548     0.6240098501
C     1.8366082533     1.7621440403     1.8893253907
C     2.3458384701     1.1563779669     0.6527977867
C     -0.4465197057     2.5089188732     2.5943605432
C     0.7248421429     2.6750548464     1.7387490659
C     -2.3004242368     1.0335930073     1.8515702764
C     -1.5517041692     2.2530215768     1.6979370631
C     -2.3458384701     -1.1563779669     0.6527977867
C     -2.5513855502     0.2691779548     0.6240098501
C     -2.1641601472     -1.8679686414     -0.6078582535
C     -0.260354306     -2.9841574196     0.4515772942
C     1.1584036008     -2.6965471087     0.409912715
C     -1.050054052     -2.8067321998     -0.7100552003
C     2.5122345271     -0.9575721117     -0.6704409791
C     1.749474561     -2.2187607516     -0.7762886039
C     2.6684769663     -0.213675181     -1.8440050953
C     2.1641601472     1.8679686414     -0.6078582535
C     2.5637394006     1.2309247034     -1.8076627099
C     0.260354306     2.9841574196     0.4515772942
C     -1.1584036008     2.6965471087     0.409912715
C     1.050054052     2.8067321998     -0.7100552003
C     -2.5122345271     0.9575721117     -0.6704409791
C     -1.749474561     2.2187607516     -0.7762886039
C     -2.5637394006     -1.2309247034     -1.8076627099
C     -2.6684769663     0.213675181     -1.8440050953
C     -2.043879647     -1.6464550103     -3.0772934125
C     -0.3437214298     -2.9355413314     -1.9297990068
C     1.0796547438     -2.5559610912     -1.9709999432
C     -0.9222712609     -2.4650026763     -3.1301275521
C     2.1312439113     -0.6657394655     -3.1439500548
C     1.3059038257     -1.828246105     -3.1978375542
C     0.1049727034     -1.8036821148     -3.9557166558
C     2.043879647     1.6464550103     -3.0772934125
C     1.7601046376     0.4606409571     -3.8959532228
C     0.3437214298     2.9355413314     -1.9297990068
C     -1.0796547438     2.5559610912     -1.9709999432
C     0.9222712609     2.4650026763     -3.1301275521
C     -2.1312439113     0.6657394655     -3.1439500548
C     -1.7601046376     -0.4606409571     -3.8959532228
C     -0.4242854755     -0.5763907817     -4.4493223561
C     0.4242854755     0.5763907817     -4.4493223561
C     -1.3059038257     1.828246105     -3.1978375542
C     -0.1049727034     1.8036821148     -3.9557166558


