60

 C     -1.7763098073     -3.9582729216     0.4060428954
C     -0.4186112586     -4.1205990726     0.1231226752
C     0.3887397698     -3.6177258308     1.2053880328
C     -1.8875308501     -3.1991187529     1.6223376759
C     -0.5400939849     -2.9171009879     2.0819611669
C     -2.6573195986     -2.0631613017     1.3266079591
C     -2.3356726908     -3.1639964829     -0.66498748
C     -3.0083532928     -2.0780201466     -0.1185879861
C     -0.138475795     -3.6720427851     -1.2432942985
C     -1.3177482972     -2.9324109667     -1.7001250369
C     1.1083528685     -3.2028635641     -1.5232856842
C     1.6800550523     -3.1009928916     0.9268519526
C     2.1306925214     -3.0983609127     -0.4573986706
C     2.1409038744     -2.0371139198     1.7563777862
C     -0.1874825547     -1.6356529729     2.6196928628
C     1.1889351415     -1.2948002966     2.5593244155
C     -2.434134446     -0.7988163913     1.9539011489
C     -1.1723932443     -0.5371679776     2.6260065351
C     -3.1545702033     0.2716093786     1.3657523366
C     -3.104235435     -0.855205682     -0.8398662832
C     -3.4977062589     0.2596656206     -0.084638569
C     -1.1876210949     -1.6702933382     -2.3033192231
C     -2.2295975612     -0.6610181379     -2.0177255549
C     1.2640407427     -2.0506546477     -2.4039927104
C     0.1728675247     -1.2075660935     -2.6966344363
C     3.0292358277     -2.1223062632     -0.8772454443
C     2.5235956133     -1.4728523134     -2.0904299248
C     3.1292841499     -1.0878379796     1.3008787747
C     3.5625535465     -1.1060936088     -0.030632084
C     1.6415294467     0.0793479803     2.6803535587
C     2.8764088189     0.1884233617     1.9448382374
C     -0.7216924606     0.8448820483     2.7514702394
C     0.7169954492     1.1503880614     2.7575203205
C     -2.8406413227     1.5838663073     1.7051587924
C     -1.604255871     1.8855637416     2.3189226422
C     -3.3319994458     1.5900767384     -0.575243993
C     -3.0066674435     2.4404610567     0.5244402333
C     -2.0172439463     0.6465824552     -2.4521327945
C     -2.6425307762     1.7833054346     -1.8042035584
C     0.45175489     0.2221898035     -2.8538978391
C     -0.6766353366     1.0855628242     -2.9166225101
C     2.7558734032     -0.1019667342     -2.0275327499
C     3.5385923091     0.1442446558     -0.8021930771
C     1.7307903026     0.8076401184     -2.4444696489
C     3.1917423349     1.3737533012     1.283781023
C     3.4282859101     1.3482018055     -0.1639942457
C     1.1683403289     2.4310043986     2.2493143425
C     2.3796109098     2.5017075281     1.5350330723
C     -1.1059150338     3.1046846951     1.6452182067
C     -1.9571366935     3.367373206     0.4758787093
C     0.2385634305     3.3386198465     1.5822004971
C     -1.7529980727     2.8824129423     -1.9061099626
C     -0.5508731548     2.4464300093     -2.6285420039
C     -1.3409963679     3.6355003818     -0.78815008
C     1.7770774107     2.1686495444     -1.8987825768
C     2.6391218385     2.4273461145     -0.7672800207
C     2.1673935653     3.2353981332     0.2884108042
C     0.8612018296     3.7801891018     0.311836456
C     0.6008461298     2.9697807466     -1.9874632985
C     0.1140573588     3.7691517321     -0.8598416073


