60

 C     0.2286372033     -4.8954099764     -0.3881632412
C     1.4603460568     -4.2164953772     -0.1923576239
C     1.5967783497     -3.810497714     1.1687968797
C     -0.5517052787     -4.6426775124     0.8251102476
C     0.2739892986     -3.9990269735     1.7888520708
C     -1.7604328975     -3.9992996964     0.4685423993
C     -0.4465802646     -4.1806265431     -1.4410487147
C     -1.7208075993     -3.7707152122     -1.0061968089
C     1.6331484799     -3.1817731899     -1.2086581069
C     0.4157094249     -3.1440717932     -1.9871226099
C     2.3156511415     -1.9799845702     -0.9155322447
C     2.0647135492     -2.5303185073     1.476029346
C     2.6266473419     -1.675828024     0.4711887138
C     -0.0931147897     -2.7566943638     2.366365738
C     1.0793856827     -1.8937172129     2.3411690568
C     -2.1585783638     -2.7800351932     1.0548057726
C     -1.3454039649     -2.1161194235     2.0593981373
C     -2.2119464837     -2.4881071169     -1.2864750782
C     -2.6522212156     -1.928488074     -0.0245476579
C     -0.1102384513     -1.8887298081     -2.4228856866
C     -1.5012426876     -1.571983542     -2.13609946
C     2.0920073973     -0.8541079657     -1.8148012122
C     0.8264936321     -0.7878398914     -2.5485348574
C     2.7767639129     0.3315003982     -1.5285708071
C     2.8811498379     -0.3167302582     0.8450554428
C     3.3104242879     0.5558343242     -0.1980504008
C     1.0053652094     -0.5071795539     2.4728049491
C     2.1407916931     0.2677862909     1.9675253677
C     -1.4437785601     -0.6830360732     2.1859778284
C     -0.2992426898     0.1211625014     2.5742366143
C     -2.8682439616     -0.5736501829     0.1476717308
C     -2.4761174311     0.0136835377     1.4217202433
C     -1.9297518771     -0.1958948308     -2.1085652605
C     -2.8277451296     0.2724548204     -1.0434495883
C     0.306383756     0.487732143     -2.8713859806
C     -1.0839702713     0.7759949418     -2.6820841586
C     2.3173996305     1.6337663173     -2.0267735921
C     1.0342583091     1.7148340583     -2.6170785075
C     3.3423467164     1.9550947409     0.018845371
C     2.6987023013     2.6382987025     -1.1299712599
C     2.0814177647     1.668070094     2.0869404823
C     2.7860907665     2.4911096862     1.1597910089
C     -0.3711243426     1.5826979942     2.5520552617
C     0.8121755674     2.3304038133     2.3697542697
C     -2.642604874     1.393965342     1.5572353132
C     -1.6145735929     2.2289824046     2.1868538356
C     -3.0451482635     1.6427568054     -0.8721183896
C     -3.1616724052     2.1539713016     0.4724243137
C     -1.2090693819     2.1956049505     -2.3789147041
C     0.1309626743     2.7733380596     -2.2854553898
C     -2.2409585771     2.6379137783     -1.5789580675
C     1.7817214514     3.6341014793     -0.6709038767
C     1.8865925724     3.5934721763     0.7604033841
C     0.7648069169     3.5890854268     1.593022976
C     0.4558445721     3.7287659697     -1.2509954035
C     -1.6746324962     3.5338128929     1.6191390583
C     -2.653759856     3.4934930304     0.5618492468
C     -1.9668593589     3.7301777984     -0.6448976426
C     -0.4558752722     4.0529042492     1.0688129571
C     -0.60930556     4.1462686507     -0.3817817855


