60

 C     1.3056046133     4.2650485708     0.4120047845
C     -0.0023550906     4.4524697853     0.8493818727
C     -0.9237331551     4.259507432     -0.3106695838
C     1.2181654139     4.0161640781     -1.0660343352
C     -0.1637958367     3.8120141463     -1.4243205374
C     2.1520056899     3.0905912588     -1.4058808051
C     2.1186082159     3.2367314038     0.9580741315
C     2.8532681176     2.6842154887     -0.1774156105
C     1.558213825     2.3083178061     1.9374896835
C     -0.5085788653     3.7188234887     1.9259074892
C     0.2402095939     2.5982180053     2.4234560103
C     -2.0539863199     3.5472979471     0.1530065967
C     -1.8327798949     3.2266705435     1.5493104329
C     -2.5656002779     2.5436683885     -0.6740292934
C     -0.5449760615     2.5909451716     -2.1445734516
C     -1.8359390596     2.108312516     -1.8644570908
C     1.8192509911     1.8796704569     -2.1367818523
C     0.484846716     1.5689797668     -2.5091386104
C     3.1193968913     1.3538785234     -0.2681556177
C     2.6303060802     0.8527034002     -1.5867793993
C     1.9682709923     0.9030608737     1.9035526073
C     2.9254351532     0.4908316875     0.8748337054
C     1.1142034175     -0.1505364004     2.4130050393
C     -0.6949535809     1.5009798852     2.5836594465
C     -1.9743785756     1.9073025451     1.9826191847
C     -0.3030206325     0.1667609177     2.5956223571
C     -3.1153688765     1.35719388     -0.0935855664
C     -2.7245591047     0.9550263829     1.2167937185
C     -2.2007009502     0.7359213665     -2.13458341
C     -3.1535656111     0.3496520501     -1.1270761218
C     0.1377526224     0.1423284274     -2.6527688913
C     -1.2714283182     -0.2319086693     -2.6152622035
C     2.3581264034     -0.493530146     -1.7631150578
C     1.1186203386     -0.9062556078     -2.3796636469
C     3.1187553175     -0.8436938212     0.6023304095
C     3.0073719848     -1.3495753282     -0.7882931425
C     1.4986120018     -1.5569052488     2.2856507721
C     2.6320236289     -1.8851601399     1.4648866751
C     0.4825644238     -2.5751224131     2.4058388428
C     -1.3272443779     -0.8579077786     2.2927060158
C     -2.5135427022     -0.462195049     1.4959964984
C     -0.9360694438     -2.1924501241     2.3016686162
C     -3.3215858892     -0.9672271387     -0.7854849547
C     -3.0677682443     -1.4051193629     0.6021467752
C     -1.6361699643     -1.6067546626     -2.4304897918
C     -2.7484242634     -1.9414205288     -1.6291409293
C     0.7208009621     -2.3303039762     -2.1902437396
C     -0.6404755366     -2.6604115766     -2.2280633955
C     2.7312238842     -2.6839456224     -0.7245496522
C     2.6667239531     -3.0919313278     0.7019361715
C     1.5869238517     -3.2369202922     -1.411853948
C     0.6193248833     -3.8245684337     1.7418042051
C     1.6597834363     -4.0200380032     0.8083330854
C     1.0317740407     -4.2070321542     -0.540255646
C     -1.6093247435     -3.1885111875     1.4708699535
C     -2.5822802412     -2.757098485     0.542419696
C     -2.4138568801     -3.1139004377     -0.8386276433
C     -1.2068651413     -3.6579406312     -1.2972973712
C     -0.6389649015     -4.1196600023     1.0552634173
C     -0.3658749029     -4.3052620446     -0.3519767947


