60

 C     -2.7632136109     -2.8743420475     0.1423016756
C     -2.1032668534     -3.1213690061     1.3271485734
C     -0.9085275563     -3.9302029837     1.0418235391
C     -1.9441698424     -3.3991025465     -0.9556352535
C     -0.8082514699     -4.0800792698     -0.3864703229
C     -1.775802454     -2.3426119161     -1.8565542991
C     -3.1865050377     -1.5511258809     -0.162190886
C     -2.6662541178     -1.2300932109     -1.4567168411
C     -3.1752550046     -0.5438787455     0.8466637738
C     -1.7404664656     -2.0278709975     2.1943514264
C     -2.3107515428     -0.7402896686     2.0209559933
C     0.156685684     -3.393434575     1.7868453311
C     -0.3380161967     -2.1936196272     2.501264914
C     1.4464622863     -3.3690037571     1.2148442903
C     0.4421152486     -3.8829308169     -0.9961256344
C     1.5773866614     -3.7338423942     -0.1573106751
C     -0.4826827992     -2.0264499572     -2.4289113439
C     0.5925809874     -2.8838504528     -2.0749595742
C     -0.2195214934     -0.6239271703     -2.8384236872
C     -2.4494633196     0.1039421682     -1.8574212558
C     -1.2479171759     0.4315063088     -2.6508291724
C     -3.3429936933     0.7610268763     0.3480322793
C     -3.0394884451     1.0972612821     -1.0220387635
C     -2.947136586     1.8698283813     1.1410478388
C     -1.5588977775     0.3998484936     2.5362986519
C     -2.0119314606     1.7218058615     2.1722672605
C     0.4882431703     -1.0776939868     2.727731622
C     -0.166990734     0.2253269481     2.8927827907
C     2.3014308039     -2.2281978903     1.4351699161
C     1.8957125714     -1.1508234484     2.2494415169
C     2.535601018     -2.8394905958     -0.7761472438
C     1.9411215963     -2.3378238293     -1.9687878906
C     3.0228389536     -1.9349824306     0.1841096116
C     1.1263772225     -0.213027942     -2.9128414574
C     2.1815041363     -1.0212444901     -2.3345863107
C     1.5099825084     1.1627769371     -2.7298606585
C     -0.8610866753     1.7841526692     -2.7040713108
C     0.5453083725     2.1585362495     -2.7509816645
C     -2.5910859914     2.48284243     -1.0566984406
C     -2.5764341399     2.9838716634     0.2801500132
C     -1.544111005     2.8320979186     -1.9157647632
C     -1.0944586207     2.8650744408     2.0422818563
C     -1.4465477033     3.6305847675     0.826419099
C     0.675497535     1.3931102572     2.8735068036
C     0.2158368315     2.6988389218     2.3846599534
C     2.6020745099     0.077072492     2.0617416713
C     2.0284177828     1.2781043637     2.5264900013
C     3.3321847765     -0.5802403746     -0.1931817199
C     2.9905087942     -0.1552064094     -1.5181134515
C     2.606522971     1.2179200045     -1.7956843704
C     3.2728261821     0.396945987     0.8280180624
C     1.2930109983     3.2640520359     1.5348886861
C     2.3974948332     2.3773989293     1.6442978726
C     2.6460761223     2.2343543713     -0.7933226041
C     3.0431316893     1.8117891159     0.5317851602
C     0.7345123253     3.3047066692     -1.9322991056
C     -0.5541245679     3.7358607541     -1.436599002
C     -0.4194298316     4.0463380682     -0.0500564714
C     1.6897293976     3.3154652239     -0.8866834014
C     0.9836065021     3.8243156315     0.3019473914


