60

 C     2.9940249735     -2.4984735132     0.5254778169
C     3.6898042005     -1.4181170911     0.0544507376
C     3.3374263068     -1.2296426492     -1.3723792419
C     2.2192381257     -3.070305704     -0.5998126331
C     2.3498898532     -2.1888300081     -1.7264715621
C     0.9867113177     -3.4814696785     -0.123557232
C     2.1216399079     -2.3927569395     1.6553615723
C     0.9778836979     -3.214084473     1.3330476159
C     1.9546786029     -1.144567774     2.3375099184
C     3.6159702847     -0.1647268875     0.7164893869
C     2.8022987152     -0.023481752     1.9037561896
C     3.1518415561     0.1422408792     -1.5777856563
C     3.5317427089     0.8337967841     -0.3423394594
C     2.0605988443     0.6106695071     -2.376701017
C     1.1875851366     -1.7755475846     -2.4447043853
C     1.1680186639     -0.3913255457     -2.9498301534
C     -0.2010101806     -3.2488778702     -0.9153756922
C     -0.0767673105     -2.4460792503     -2.1239718412
C     -1.4433704354     -3.2471022188     -0.1961021262
C     -0.2152347977     -2.9884983054     1.9638880605
C     -1.4322118178     -3.1968450738     1.2164787876
C     0.6295007547     -0.8568968568     2.9422760853
C     -0.3894715762     -1.8299419807     2.8146600879
C     0.1918492825     0.5422536727     3.1750993086
C     2.3632065489     1.3113382572     2.1896458716
C     1.0611034578     1.5964731495     2.828359322
C     2.9983394122     2.0670863323     -0.0641135804
C     2.6201161996     2.3498264381     1.2807835264
C     1.5427757841     1.9637126386     -2.0770815202
C     1.996039263     2.6523126797     -0.9396959502
C     0.210791536     2.3077411346     -2.5374024589
C     -0.0570298281     0.0776224975     -3.5269476846
C     -0.4632279163     1.4431714187     -3.3887251153
C     -1.2847361742     -1.840109452     -2.6210511017
C     -1.2368139638     -0.7113483928     -3.4257324689
C     -2.5533587791     -2.3893560694     -0.5966802023
C     -2.4974948396     -1.7263158319     -1.7827684443
C     -2.424809249     -2.2836578196     1.687858645
C     -1.8140147301     -1.458909664     2.6873746197
C     -3.0950576634     -1.7050117375     0.5750030351
C     -1.2294073775     0.8566387243     3.1495478218
C     -2.2125432207     -0.1522701124     2.770600425
C     -1.6929925138     2.0742183417     2.6312639797
C     0.5539836546     2.8446850173     2.2717934233
C     1.4649132509     3.2244147184     1.2452468976
C     1.045870823     3.3868422942     -0.0820618957
C     -0.8173103727     3.0054431906     2.0339932646
C     -0.7672925884     2.93572563     -1.6521179565
C     -0.3759534676     3.4025426502     -0.3811070524
C     -1.3050749568     3.2555385179     0.6872880951
C     -1.8927685838     1.4782333409     -3.0246734895
C     -2.3586134476     0.1859997484     -3.0254475814
C     -3.0313834323     -0.3727158051     -1.9110194591
C     -2.0526295017     2.2924877475     -1.8735382223
C     -3.3819886558     -0.3021409653     0.5395216071
C     -3.0959501688     0.4158465645     1.7502427355
C     -2.7873442129     1.7888560295     1.7018501367
C     -2.5245901156     2.4582807641     0.494361911
C     -3.2934909834     0.4206047803     -0.7446882044
C     -2.8238997019     1.8248035573     -0.7593476963


