60

 C     -0.6630705932     -4.7634928502     -0.6941578883
C     0.6879745614     -4.473478943     -1.0739137638
C     1.4771753576     -4.4511529443     0.1002500705
C     -0.7458385191     -4.5020307359     0.7715608769
C     0.5366738674     -4.386474326     1.2805956789
C     -1.7165325347     -3.4743726724     1.0269777911
C     -1.4791737981     -3.8157566406     -1.2955767144
C     -2.2689750862     -3.1545420826     -0.2876481091
C     0.6929388387     -3.30260189     -1.961273439
C     -0.6780147596     -2.9230273318     -2.1604610543
C     1.6582908482     -2.2568007083     -1.7946068358
C     2.4033345118     -3.4444428904     0.2693373264
C     2.5998551779     -2.3878657186     -0.7063327273
C     0.9024552587     -3.2348538997     2.0549757607
C     2.1795663717     -2.7988851393     1.5561084095
C     -1.4174014191     -2.3643789654     1.8839554247
C     -0.0535232121     -2.2183331489     2.3981996115
C     -2.2268595428     -1.146263732     1.7061267117
C     -2.7552240591     -1.8976218486     -0.5706993158
C     -2.9703536958     -0.9648472971     0.4906687134
C     -1.0826776833     -1.5757634983     -2.3629230567
C     -2.3282607617     -1.155458049     -1.7411675512
C     1.2952681224     -0.9048183891     -2.2101929607
C     -0.0776026732     -0.5575857851     -2.562746654
C     2.1178219355     0.1861433216     -1.7598269302
C     2.9008525575     -1.2192793272     0.0490589685
C     2.5221729864     -1.4484937648     1.4459120812
C     2.7834755336     0.0559770496     -0.4840472943
C     0.4577932211     -0.8565195756     2.6198322894
C     1.7603388148     -0.4480772133     2.0898764763
C     -1.8236060547     0.0444073515     2.3462286354
C     -0.464956868     0.1874363267     2.8009962784
C     -2.2633111346     1.3531977832     1.916883613
C     -3.084143704     0.3251224752     -0.1063429098
C     -2.5894895258     0.1978672213     -1.4724830086
C     -2.8485429787     1.5034415337     0.6201485212
C     -0.496503788     0.8571432648     -2.6088698379
C     -1.8036443996     1.2471891792     -2.0454438151
C     1.8258760582     1.5041152083     -2.2035247423
C     0.4831847323     1.8584693462     -2.6616751992
C     2.3613798384     2.5962984657     -1.5325926793
C     2.7049856278     1.1708168488     0.4501771346
C     2.0262979725     0.9369066967     1.7138068305
C     2.7131560141     2.4635097029     -0.1344965227
C     -0.1001548298     1.5833703279     2.720409208
C     -1.2785647556     2.3175960024     2.3232881186
C     1.1714292008     1.9868122116     2.2217487611
C     -1.1937583634     3.5764908033     1.6764423575
C     -2.5426236925     2.689555549     -0.1505209095
C     -1.9831397086     2.5413051503     -1.5247188879
C     -1.9467870535     3.7868370941     0.4483109279
C     0.2351161364     3.251708939     -2.3019143511
C     1.4352066136     3.7392805573     -1.672350581
C     -1.0106351383     3.5903492947     -1.7147429171
C     -1.0342108839     4.4151360835     -0.5283201822
C     2.1039416048     3.5482013872     0.5342398728
C     1.2675451566     3.3243924866     1.6576080254
C     0.0872486892     4.1254086099     1.4730682069
C     1.3885349335     4.4063466063     -0.4502308569
C     0.1476907746     4.7563864891     0.1270091133


