60

 C     2.942210487     -2.2796011552     -1.1576136282
C     1.9624758224     -3.2478905631     -1.1331690015
C     1.6830199878     -3.5804010159     0.2794492082
C     3.2757306515     -1.9269680424     0.2526774349
C     2.3920378558     -2.6594091025     1.112630066
C     3.4422235161     -0.5595345173     0.3398627901
C     2.7715688268     -1.0940187441     -1.8912887888
C     3.3380251387     -0.0371439147     -1.0388395305
C     1.5680653541     -0.8447138072     -2.6270676962
C     0.7353110496     -3.0554957719     -1.8205177648
C     0.5015144124     -1.855103068     -2.5704065965
C     0.3071942996     -3.7862624066     0.4056526959
C     -0.3024661455     -3.5870122635     -0.9265935948
C     -0.3454643782     -3.2481278034     1.5343418731
C     1.699695832     -1.9373533568     2.1400744812
C     0.3552491327     -2.3630096003     2.4115183221
C     2.8911754595     0.207737264     1.4403082408
C     2.0497874099     -0.5219821718     2.3794832086
C     2.7041048651     1.643018174     1.2164742514
C     3.0377665855     1.2562244128     -1.2562740493
C     2.8698536107     2.1700503297     -0.1235174607
C     1.233208148     0.5705701746     -2.8723196187
C     2.0785320715     1.6019998624     -2.3137101761
C     -0.1177000466     0.9303548143     -3.1012787022
C     -0.9054253321     -1.4281103445     -2.7253812203
C     -1.1841099343     -0.0671442841     -3.0106595508
C     -1.5938383784     -3.161783395     -1.0254398327
C     -1.9461471576     -2.1616758717     -2.0361599356
C     -1.7353259663     -2.803536867     1.4248998679
C     -2.3872402019     -2.8898467647     0.183686475
C     -0.6420574245     -1.4342586952     2.9291097086
C     -1.9196751883     -1.6497779576     2.2510575959
C     1.1232556413     0.2497340584     3.1552046673
C     -0.270613064     -0.1942668455     3.3406700306
C     1.7791685808     2.3554475965     2.0423226283
C     1.0740294654     1.6367325082     3.0344544818
C     0.8410782916     3.3401146415     1.4901378658
C     2.0397905016     3.1917859527     -0.5930017024
C     1.5515745272     2.843465763     -1.9389335852
C     0.9430305132     3.710172872     0.1548109548
C     -0.6512830102     2.1940033335     -2.6522953198
C     0.1679023658     3.1297536198     -2.002837382
C     -0.2427839154     3.6985584753     -0.7177399482
C     -2.3571796441     0.594973032     -2.4917210116
C     -1.9926300827     1.9553560754     -2.1618094004
C     -3.0878605055     -1.4921086138     -1.5542147488
C     -3.2982662604     -1.8706722707     -0.1508811918
C     -3.2520770723     -0.1008916256     -1.6717220192
C     -2.72231833     -0.5356697666     1.8423594258
C     -3.45338995     -0.6961504975     0.6154679399
C     -3.5545983446     0.4211727694     -0.3334997458
C     -1.1609915275     0.9482407241     3.1104416261
C     -0.3332440314     2.0762834299     3.0382301164
C     -0.4824562244     3.0788579219     2.0620331108
C     -2.3002854858     0.8186982046     2.2431448539
C     -1.4819451323     3.3527338908     -0.1881207488
C     -2.3873422868     2.5029736794     -0.9398236268
C     -3.1011664714     1.668085539     0.0229880928
C     -1.6120309054     3.0102341563     1.2244094955
C     -2.5366681059     1.9125877286     1.3489361692


