60

 C     0.3539579288     -4.7237367931     0.0470974214
C     -0.9238213231     -4.2964979183     0.4964173099
C     -1.6951412478     -3.8763670799     -0.6287339902
C     0.4881988668     -4.1860000257     -1.3076727186
C     -0.7542110737     -3.7457595007     -1.7729214532
C     1.5718668112     -3.2446218569     -1.334157054
C     1.2980075503     -4.0075424146     0.834347258
C     2.1597380746     -3.2205963015     0.0054732647
C     -0.7896443278     -3.4073399952     1.6669250625
C     0.6334562662     -3.3230603134     1.9278581048
C     -1.5964735539     -2.2503605977     1.7857393715
C     -2.4331481078     -2.7149654557     -0.5444124194
C     -2.5757048223     -2.0145544176     0.7164456066
C     -0.9338899279     -2.4464724879     -2.3268488113
C     -2.1085711943     -1.8848925172     -1.7272461501
C     1.4613666875     -2.0143458094     -2.0629794961
C     0.1576182874     -1.5466660401     -2.5614338832
C     2.4054203626     -1.0263192373     -1.6996479533
C     2.7537258733     -2.0302709723     0.5239613933
C     3.0922994872     -1.042237184     -0.440196779
C     1.1760399228     -2.1346311508     2.3978740207
C     2.3621386798     -1.5675012463     1.8200707832
C     -1.0627290034     -1.0386548373     2.4673731298
C     0.3137393054     -1.0336841355     2.7799694869
C     -1.7408001945     0.2610971412     2.3627251445
C     -3.137752209     -0.7596113864     0.6155802828
C     -2.9457528378     0.2818705561     1.6002929535
C     -2.392156488     -0.5265466682     -1.757329768
C     -3.2774713584     -0.0883935257     -0.6945665546
C     -0.11545731     -0.1163957198     -2.6481198819
C     -1.4407758472     0.4103442511     -2.3255714794
C     2.2681639714     0.3414847163     -2.1267862756
C     1.0167091441     0.8112478179     -2.606216779
C     3.3406440569     0.3275328198     -0.0789401639
C     3.0731902124     1.1571599878     -1.2397615672
C     2.3270154998     -0.1499436857     2.0770411649
C     1.0875164105     0.1810445299     2.7201191242
C     2.9535424122     0.7952603334     1.2111790423
C     -0.9829290299     1.5300781921     2.4893785518
C     0.482692918     1.4606169657     2.5887926442
C     -1.5264321638     2.7289543355     1.9223973829
C     -3.4005417373     1.4826735232     0.9912369615
C     -3.4885019837     1.2441801943     -0.4724592278
C     -2.7331703109     2.6599224483     1.1587635426
C     -1.6564247674     1.8474039538     -2.0537174481
C     -2.7282311344     2.2529886099     -1.1498932933
C     -2.4652893239     3.2616736987     -0.1707742669
C     0.7771269774     2.2289855229     -2.4706028271
C     -0.5631599177     2.7373184008     -2.1475239766
C     2.796805092     2.5044730811     -1.0878782092
C     1.7282102371     3.0656969851     -1.8699859494
C     2.5226805202     2.1665912862     1.3260819319
C     1.2890010561     2.501597202     2.0506226811
C     2.6730771637     3.0540641371     0.2434060644
C     -0.6779288403     3.7001127167     1.2413299343
C     -1.2519982201     3.9375962401     -0.1065424014
C     -0.3989540987     3.8622992794     -1.2436343188
C     0.9950528827     4.0284866317     -1.0390676457
C     0.6992264555     3.6339697092     1.3816781875
C     1.5388329414     3.9612443067     0.2454449344


