60

 C     2.2297317182     -3.7784014723     -0.223017189
C     1.6308066252     -3.656031715     1.0905708453
C     0.2265545241     -3.9456633431     1.0149897893
C     1.1479596325     -3.8436224354     -1.1399166598
C     -0.0809128872     -4.1079058483     -0.4273022843
C     1.2265346139     -2.7269529548     -2.0574367358
C     2.9702084538     -2.6051565846     -0.4820023832
C     2.3836136555     -1.9681154517     -1.6507256245
C     2.0842766021     -2.447290482     1.6927379641
C     2.9479496105     -1.8016054     0.7032351588
C     1.1989889063     -1.6405915968     2.4672095121
C     -0.6394926603     -3.1988144614     1.8084744366
C     -0.145545656     -2.1098121685     2.6129669612
C     -1.9628516808     -2.8039153809     1.3009032055
C     -1.2440332548     -3.5830675866     -0.9377248876
C     -2.2932659219     -3.078401105     -0.0272422074
C     0.0434604309     -2.0601751794     -2.49098516
C     -1.2004439186     -2.6677702776     -2.0866991489
C     0.0857137364     -0.6145719071     -2.7471913561
C     2.4207247101     -0.5775210383     -1.7979605847
C     1.3399198789     0.0762100797     -2.524937866
C     3.0389719681     -0.3991768222     0.6144250202
C     3.0917013267     0.1804743814     -0.730960688
C     1.4624042454     -0.1991597706     2.5499023428
C     2.4743901857     0.3989512249     1.6882037819
C     0.4044637546     0.6509998651     2.9791243996
C     -1.2219044553     -1.1546533809     2.7330032674
C     -2.3306866062     -1.5337777533     1.8882962327
C     -0.9524556847     0.1794253381     2.9812378756
C     -3.0521594189     -0.5224645577     1.1745284355
C     -3.0257795031     -2.0897772757     -0.7259955929
C     -2.3275265269     -1.8459745328     -1.9888107328
C     -3.4076340938     -0.8568709797     -0.1797800899
C     -1.146640873     0.1886242969     -2.6817321843
C     -2.334983884     -0.4685540963     -2.2712396171
C     -3.1893904706     0.1392326716     -1.2346431215
C     -1.1117957272     1.6524010628     -2.4806812113
C     1.3569003242     1.5122833525     -2.5572680691
C     0.124728245     2.31619967     -2.5238726843
C     3.1129329378     1.5700447278     -0.8446377555
C     2.3518959033     2.2125173044     -1.882056258
C     2.4787108428     1.828227481     1.5156216307
C     2.9427830349     2.3812496693     0.3170281159
C     0.3454818467     2.0667433463     2.6668579425
C     1.3864972458     2.6778004126     2.0012167235
C     -1.8212595178     1.2238346396     2.4649040607
C     -2.820677153     0.8920673159     1.5017170877
C     -1.0352133486     2.4289733894     2.3740358705
C     -3.0688657748     1.4493524208     -0.9279207348
C     -2.1555943095     2.2877460247     -1.6974944427
C     -3.045326839     1.8842772301     0.4773549679
C     -1.3016913767     3.3908344726     1.3859352511
C     -1.8538350898     3.3864949276     -0.878156768
C     -2.3556252352     3.1008977418     0.4795969161
C     0.3896074024     3.5223814818     -1.7523480244
C     1.758756999     3.4600661741     -1.3547630324
C     2.1099613617     3.5561994583     -0.0209295497
C     1.1199280332     3.7207979505     1.0067032585
C     -0.5623893144     3.9512445784     -0.7963051851
C     -0.1985776736     3.9992428674     0.6319567755


