60

 C     1.6442528677     3.7719660351     1.4971118802
C     1.9256316716     3.7408345836     0.1349671655
C     0.6994458794     3.9702300123     -0.6312313345
C     0.2278582081     3.8726710845     1.6648395648
C     -0.3509471336     4.1401711345     0.3626385904
C     -0.1978485459     2.7057465035     2.3468137773
C     2.0945502182     2.5034387219     2.0691421641
C     0.9855284649     1.8668108621     2.6627442841
C     2.7517075347     2.5679788405     -0.1259909362
C     2.8776533843     1.7878359805     1.1341767807
C     2.5559413064     1.8888316105     -1.2994290538
C     0.4501251197     3.1975159768     -1.8100052319
C     1.4340794289     2.2075859179     -2.1947864136
C     -0.9154079644     2.8780886685     -2.1370578826
C     -1.6293200789     3.6451457997     0.1045199398
C     -1.9302394017     3.2059163119     -1.2022642915
C     -1.4500526731     2.0608718328     2.0308750835
C     -2.2354559261     2.6435145441     1.0061756349
C     -1.5965911513     0.6294584473     2.3476996148
C     0.9103014112     0.4608275365     2.6850647039
C     -0.4152715188     -0.146120805     2.8012474423
C     2.8426337076     0.38057011     1.1283596356
C     1.9888618565     -0.3148608106     2.0832678238
C     2.8049581293     0.4650139981     -1.3540096153
C     3.0838680609     -0.2925881409     -0.1554984786
C     1.0589790875     0.9884767459     -2.7916674433
C     1.989648977     -0.0731321756     -2.3697578577
C     -1.2915375071     1.5884485275     -2.6964558104
C     -0.3196760661     0.6309157544     -3.0367447444
C     -2.9155107643     2.1312335164     -1.1580168737
C     -3.1211414477     1.7989841275     0.2082743152
C     -2.5521741516     1.1392792989     -2.075913596
C     -2.649562675     -0.0760910732     1.7268439043
C     -3.2947392252     0.4686911901     0.5487463884
C     -2.5778809865     -1.4990809621     1.5424703198
C     -0.4718793355     -1.5377591638     2.8094422805
C     -1.6220711033     -2.247151984     2.248264074
C     1.8736306273     -1.7631799037     2.0138195988
C     0.703854757     -2.3740981078     2.5725024629
C     2.9175746962     -1.6652921673     -0.2327812065
C     2.5321233106     -2.4567909056     0.9250796395
C     1.6425433743     -1.4502196664     -2.3831184765
C     2.3358549386     -2.2921830617     -1.4274082599
C     -0.673763539     -0.7637858322     -2.9708091734
C     0.3215373735     -1.8133087702     -2.7671147804
C     -2.7637147177     -0.2466081828     -1.7597369896
C     -3.2628287607     -0.5653072888     -0.4624964799
C     -2.8935528214     -1.8124660425     0.1829064565
C     -1.8742630793     -1.1965325787     -2.3547448306
C     -0.3237025652     -2.9494981653     -2.1691965661
C     -2.16677893     -2.8544514094     -0.4910353034
C     -1.6404975608     -2.5182493775     -1.7744413887
C     -1.1882145213     -3.4659362049     1.7323481165
C     0.2251032839     -3.6261557674     2.0596158019
C     -1.4026359281     -3.7854615532     0.3328825167
C     2.0044136365     -3.6741894467     0.4218590391
C     1.7845731203     -3.5031327121     -1.0267717494
C     0.4107159311     -3.8341714017     -1.3351208981
C     0.8340811489     -4.2151591161     0.9537371843
C     -0.1847712325     -4.3240910961     -0.1448306179


