60

 C     -0.1451126986     5.6291616033     0.6447289283
C     1.0987705536     5.4626609293     0.0756816346
C     0.9715059239     5.146060774     -1.3366552737
C     -1.1669605808     5.2347996941     -0.397169524
C     -0.4853073294     4.8860198704     -1.5764094429
C     -2.0268275469     4.2893042671     0.2176857458
C     -0.2781711358     4.6902269735     1.748750765
C     -1.4677523892     3.9989341356     1.5780696602
C     1.7945414096     4.3476365204     0.7639954556
C     0.955198517     3.8620608245     1.8302837795
C     1.6155170007     3.9353530531     -1.5241919259
C     2.2189885886     3.4454495916     -0.2388655327
C     -0.6187679365     3.5281463553     -2.0591187313
C     0.7277645455     2.9801221037     -2.1724464562
C     -2.3168604043     3.0422124337     -0.3571292362
C     -1.6203186895     2.6189472642     -1.5576292411
C     -1.5832473154     2.6039638563     1.8298536772
C     -2.3133413343     2.0369981541     0.7312688717
C     0.8609622448     2.4660138252     2.0439204819
C     -0.4643044602     1.8335736457     2.284629408
C     2.2279993035     2.0669810583     0.006772788
C     1.7367131918     1.5886376596     1.2814234003
C     0.9724692056     1.6178699017     -2.0624745828
C     1.9957710423     1.13972304     -1.1203408094
C     -1.4024644839     1.1984155278     -1.7392371785
C     -0.1368700339     0.7073049105     -2.1751825426
C     -2.278959449     0.6795453679     0.483809528
C     -2.1156954673     0.2216767118     -0.8962368833
C     -0.5933507246     0.424575216     2.2169402049
C     -1.6717090156     -0.1766524442     1.4752732315
C     1.6717090156     0.1766524442     1.4752732315
C     0.5933507246     -0.424575216     2.2169402049
C     2.1156954673     -0.2216767118     -0.8962368833
C     2.278959449     -0.6795453679     0.483809528
C     0.1368700339     -0.7073049105     -2.1751825426
C     1.4024644839     -1.1984155278     -1.7392371785
C     -1.9957710423     -1.13972304     -1.1203408094
C     -0.9724692056     -1.6178699017     -2.0624745828
C     -1.7367131918     -1.5886376596     1.2814234003
C     -2.2279993035     -2.0669810583     0.006772788
C     0.4643044602     -1.8335736457     2.284629408
C     -0.8609622448     -2.4660138252     2.0439204819
C     2.3133413343     -2.0369981541     0.7312688717
C     1.5832473154     -2.6039638563     1.8298536772
C     1.6203186895     -2.6189472642     -1.5576292411
C     2.3168604043     -3.0422124337     -0.3571292362
C     -0.7277645455     -2.9801221037     -2.1724464562
C     0.6187679365     -3.5281463553     -2.0591187313
C     -2.2189885886     -3.4454495916     -0.2388655327
C     -1.6155170007     -3.9353530531     -1.5241919259
C     -0.955198517     -3.8620608245     1.8302837795
C     -1.7945414096     -4.3476365204     0.7639954556
C     1.4677523892     -3.9989341356     1.5780696602
C     2.0268275469     -4.2893042671     0.2176857458
C     0.2781711358     -4.6902269735     1.748750765
C     0.4853073294     -4.8860198704     -1.5764094429
C     -0.9715059239     -5.146060774     -1.3366552737
C     -1.0987705536     -5.4626609293     0.0756816346
C     1.1669605808     -5.2347996941     -0.397169524
C     0.1451126986     -5.6291616033     0.6447289283


