60

 C     -0.7167865739     4.4853857417     0.8226155438
C     0.4448256819     4.5090888648     -0.0340612328
C     0.0292555266     4.1419805697     -1.3250311155
C     -1.8295483107     3.9113926751     0.0567248822
C     -1.4046808983     3.7697889232     -1.2745543883
C     -2.331024283     2.7589921732     0.7354315558
C     -0.441691902     3.5879199907     1.8579840268
C     -1.482498275     2.573711876     1.9120540207
C     1.4956936999     3.7196142295     0.596848374
C     0.9386477325     3.1366807402     1.8102944423
C     2.2911370411     2.8913799303     -0.1897441793
C     0.7047410461     3.1316477386     -2.071352939
C     1.9147045202     2.6127853886     -1.5842513783
C     -1.5567883484     2.5369587273     -1.9489553293
C     -0.2744944521     2.1667032425     -2.5454973319
C     -2.6980026291     1.5884510348     0.0233609531
C     -2.3415171444     1.4867188077     -1.3866213414
C     -2.8149876959     0.3603317069     0.8005228093
C     -1.2035240308     1.3169865621     2.4436515315
C     -2.109259336     0.2284802076     2.0700073185
C     1.2594101828     1.8287748057     2.2296843114
C     0.1867833361     1.0089896586     2.8123154231
C     2.8138509342     1.6683896709     0.3513310119
C     2.3598651512     1.1176992272     1.5804547754
C     2.2891342823     1.2727982764     -1.894629825
C     3.0529874097     0.7694476701     -0.7697329574
C     0.0532373926     0.8201188296     -2.8081948287
C     1.4202719921     0.3650372327     -2.5680113052
C     -2.2245261468     0.1842874224     -1.9941461445
C     -1.0381659325     -0.1500738792     -2.7849307651
C     -3.1225734676     -0.8132148134     0.0925812459
C     -2.9228827115     -0.8718552668     -1.3420175267
C     -2.841071853     -2.148456712     0.642497106
C     -1.82784994     -1.0597394866     2.5795948754
C     -2.1324846273     -2.2591801221     1.8339363059
C     0.4704712851     -0.3146832679     3.1490330974
C     -0.5721986107     -1.2766329631     3.2186692822
C     2.5619253063     -0.3228502318     1.8111791704
C     1.6889755893     -1.0029981035     2.686548508
C     3.259521351     -0.5638091013     -0.5854711439
C     3.1760120478     -1.1208874912     0.7741888195
C     1.6989168721     -1.0731778506     -2.4381367344
C     2.7247038975     -1.5154023932     -1.5247981562
C     -0.6982734832     -1.5171096076     -2.9578180422
C     0.6478809323     -1.9779358064     -2.7018186944
C     -2.6410073534     -2.221176069     -1.6706955019
C     -2.5430433825     -3.0235273344     -0.4300603481
C     -1.5801718697     -2.5433729147     -2.4849731341
C     0.5428129517     -3.2652217796     -1.9573722047
C     -1.3562634232     -3.7892639077     -0.4705196144
C     -0.7967694583     -3.5782027021     -1.7973877371
C     -0.9690136686     -3.1509623887     1.8920477236
C     -0.0578127023     -2.5400860563     2.790834214
C     1.3371708141     -2.3996486686     2.486941822
C     -0.4818807501     -3.8133034684     0.6973651651
C     2.8471470971     -2.4675905664     0.6151062565
C     2.5857274828     -2.7348489843     -0.8009593825
C     1.4463805928     -3.535473679     -0.8889531735
C     1.8398239403     -3.1125762213     1.3906315133
C     0.9287770709     -3.787280487     0.4662601711


