60

 C     -0.4866701645     -3.6359358318     -2.2138195551
C     0.8157948485     -3.5630654437     -1.652840521
C     0.7339597031     -3.5299180798     -0.1888551525
C     -1.3702221993     -3.4352418354     -1.1301889929
C     -0.6468111975     -3.4584863895     0.1449773631
C     -2.233002027     -2.3359041397     -1.3912498064
C     -0.6468930435     -2.4799373155     -3.0793896081
C     -1.7916026738     -1.7159050567     -2.6392974854
C     1.5258098498     -2.5169014788     -2.3117418727
C     0.5782171282     -1.796363555     -3.2009647678
C     2.4388488738     -1.7857296025     -1.5665362744
C     1.6770204034     -2.7902486558     0.5923590695
C     2.6291140937     -2.0271400061     -0.1410819645
C     1.2815476267     -2.3532613079     1.9312488386
C     -1.1157428537     -2.7294909436     1.2706958263
C     -0.1440677887     -2.4115252725     2.3220969732
C     -2.7134497942     -1.5648577598     -0.3036636297
C     -2.296796963     -1.891228708     1.0775702246
C     -3.0799651013     -0.2358551886     -0.6250359117
C     -1.8123062264     -0.3202880415     -2.7925515933
C     -2.6290297145     0.3872376265     -1.8326334676
C     0.627711539     -0.3694460067     -3.31831377
C     -0.627711539     0.3694460067     -3.31831377
C     2.6290297145     -0.3872376265     -1.8326334676
C     1.8123062264     0.3202880415     -2.7925515933
C     3.1226667361     -0.798339439     0.4005498929
C     3.0799651013     0.2358551886     -0.6250359117
C     2.0933592203     -1.3489466891     2.54422868
C     2.8956972886     -0.473511917     1.7068128742
C     1.5878700106     -0.5297301677     3.5960409133
C     -0.5946302312     -1.5911719387     3.4033769907
C     0.3046792026     -0.6725685735     4.0672947633
C     -2.5701005969     -0.9228349877     2.0726723706
C     -1.829518231     -0.8842965775     3.2582395929
C     -3.1226667361     0.798339439     0.4005498929
C     -2.8956972886     0.473511917     1.7068128742
C     -2.4388488738     1.7857296025     -1.5665362744
C     -2.6291140937     2.0271400061     -0.1410819645
C     -0.5782171282     1.796363555     -3.2009647678
C     -1.5258098498     2.5169014788     -2.3117418727
C     1.7916026738     1.7159050567     -2.6392974854
C     0.6468930435     2.4799373155     -3.0793896081
C     2.7134497942     1.5648577598     -0.3036636297
C     2.233002027     2.3359041397     -1.3912498064
C     2.5701005969     0.9228349877     2.0726723706
C     1.829518231     0.8842965775     3.2582395929
C     2.296796963     1.891228708     1.0775702246
C     -0.3046792026     0.6725685735     4.0672947633
C     -1.5878700106     0.5297301677     3.5960409133
C     -2.0933592203     1.3489466891     2.54422868
C     0.5946302312     1.5911719387     3.4033769907
C     -1.6770204034     2.7902486558     0.5923590695
C     1.1157428537     2.7294909436     1.2706958263
C     -1.2815476267     2.3532613079     1.9312488386
C     0.1440677887     2.4115252725     2.3220969732
C     -0.8157948485     3.5630654437     -1.652840521
C     0.4866701645     3.6359358318     -2.2138195551
C     1.3702221993     3.4352418354     -1.1301889929
C     -0.7339597031     3.5299180798     -0.1888551525
C     0.6468111975     3.4584863895     0.1449773631


