60

 C     0.2850268137     -4.6717311475     0.4377810039
C     -1.0898934301     -4.3862491526     0.3117119701
C     -1.3488139356     -3.9836234239     -1.0309461538
C     0.9457216003     -4.2723576577     -0.8115574508
C     -0.0746658552     -3.854689807     -1.7360130081
C     1.9495879956     -3.3573260527     -0.5153718788
C     0.7966311274     -3.8263713055     1.4681447958
C     1.9148388629     -3.1243718054     0.9735503148
C     -1.4698019183     -3.4523258136     1.3801321857
C     -0.2559037028     -3.0340452962     2.0658053859
C     -2.4246968417     -2.4926027551     1.1117972229
C     -2.156923322     -2.8538440779     -1.3254290125
C     -2.858923136     -2.229897578     -0.2849267479
C     -0.0616963597     -2.578662955     -2.3440972787
C     -1.398025811     -1.9839111074     -2.2083594727
C     2.1452256633     -2.1976315448     -1.344483538
C     1.0854777903     -1.7169242002     -2.233248802
C     3.0090180699     -1.2460808872     -0.80916057
C     2.2437578856     -1.8721564628     1.4876272999
C     3.1903840277     -1.1720395392     0.6715787482
C     -0.0387110401     -1.6593901589     2.4281578842
C     1.2891039953     -1.0834063537     2.2788711125
C     -2.3640910848     -1.2237213785     1.7633979358
C     -1.1738033334     -0.7460450447     2.3999630765
C     -3.1843755202     -0.8604392281     -0.3908652011
C     -3.1454884957     -0.3105014308     0.9569828903
C     -1.5882303169     -0.6038651564     -2.2343590672
C     -2.6670515444     -0.0236697413     -1.422326753
C     0.9347923713     -0.2912140449     -2.4437919623
C     -0.4352389609     0.2462028813     -2.5784402697
C     3.1133076753     0.0673524961     -1.3169217176
C     2.0207940375     0.621204119     -2.076455981
C     3.5818966731     0.0844117276     1.0018707791
C     3.7229060964     0.8466833523     -0.2594591452
C     1.4978853386     0.3570404434     2.3836569979
C     2.7529483742     0.88452849     1.8952009635
C     -0.9808678277     0.7041781583     2.4895736341
C     0.3508768665     1.2804198368     2.4749027624
C     -3.0895452943     1.0154459007     1.1686382867
C     -2.0980186429     1.5418300528     2.1044658473
C     -2.7637569008     1.4142996665     -1.2524509822
C     -3.1888766621     1.9362369617     0.0390446619
C     -0.6434326993     1.6214620994     -2.5524390359
C     -1.8709725515     2.2270134887     -2.0166277555
C     1.7540346538     2.0557771256     -1.9247750566
C     0.4569338345     2.5484130566     -2.3032719369
C     3.3376173312     2.1223523021     -0.0216423078
C     2.7964266927     2.1910242761     1.3610821172
C     2.4145030454     2.7942424699     -0.8764482214
C     0.4992041441     2.6889118129     2.0338691022
C     1.7005344564     3.0497540546     1.343362804
C     1.6226922786     3.6406167291     -0.0110262422
C     -1.9386929501     2.8787787332     1.7497153569
C     -2.710858073     3.1705920796     0.5113366278
C     -0.6497686743     3.4660120808     1.6562856475
C     -1.531181602     3.5384937094     -1.5805120989
C     -0.0871871637     3.7076754971     -1.728110678
C     0.4337174737     4.1844802185     -0.4693294784
C     -1.900090625     3.9789167645     -0.2893175139
C     -0.6562614002     4.2447445225     0.4436577035


