60

 C     2.4920331451     -3.0162370712     1.7151651332
C     1.6358298454     -3.7200955468     0.8696327589
C     1.8820265967     -3.3374323657     -0.515534398
C     3.236573411     -2.0875127056     0.9324203111
C     2.8651120479     -2.2825631798     -0.4627728348
C     3.006990792     -0.7904740821     1.4561215328
C     1.6286208271     -2.2303786801     2.6033378105
C     2.002337188     -0.8758120938     2.5278389273
C     0.274931609     -3.6402940508     1.3886198137
C     0.2667306247     -2.5992098782     2.4567551963
C     -0.7618114233     -3.7194023123     0.5125662745
C     0.7861536314     -3.2854730457     -1.4257828803
C     -0.5163821732     -3.7025248089     -0.9454645895
C     0.8041672898     -2.2432514015     -2.4092510832
C     2.7826890252     -1.1564174935     -1.3289309791
C     1.8102481481     -1.2237736943     -2.3681599434
C     3.0612813627     0.3728576645     0.6416092728
C     3.1018640361     0.1781305008     -0.7926306936
C     2.5371146238     1.6013760196     1.2269786449
C     1.039688028     0.1451667747     2.6696337719
C     1.4596107142     1.4784862065     2.2414295726
C     -0.7473864384     -1.6121265309     2.5071210634
C     -0.3631757689     -0.2212799928     2.7574982112
C     -1.9963115502     -2.9734066412     0.7878150775
C     -2.0045824335     -1.896562514     1.7664904572
C     -1.6668741252     -3.1349078504     -1.4964200224
C     -2.6301220475     -2.7941663738     -0.4449162349
C     -0.4256765758     -1.6018084858     -2.8650399128
C     -1.6604212506     -2.0386785777     -2.4098907576
C     1.2199140113     -0.0075220314     -2.9166493898
C     -0.1935401127     -0.1902131354     -3.0675953858
C     2.7795228428     1.3144845373     -1.5883730763
C     1.71780837     1.2192109446     -2.600406264
C     2.5726001302     2.7692867131     0.4104311136
C     2.6624528041     2.566321321     -1.0017483399
C     1.6125141343     3.8286352467     0.5919150571
C     0.5060567676     2.5070406765     2.3396621219
C     0.625158865     3.6893456403     1.5280241844
C     -1.3515543737     0.836547569     2.569425119
C     -0.9100328916     2.1734819448     2.417007692
C     -2.9165959316     -0.8581232602     1.5374156012
C     -2.6412365191     0.5066318045     2.0137878804
C     -3.2867347434     -1.587604281     -0.7904642618
C     -2.6498464488     -1.0449653018     -1.9838604572
C     -3.6070275728     -0.7290290643     0.2612264293
C     -1.1137435904     0.8157508205     -2.6592874888
C     -2.392052961     0.3551751506     -2.0989046789
C     0.8217401658     2.3512548748     -2.4644313581
C     1.529419099     3.2942532549     -1.6344999396
C     0.9139662227     4.0759065937     -0.7059456175
C     -0.5774118131     2.1521545784     -2.3164945779
C     -0.6892099909     3.9374086081     0.9066442746
C     -1.6201466352     3.0993872762     1.5199582057
C     -0.5138422666     3.9542003271     -0.5075936007
C     -1.2825572189     3.0163925391     -1.3211388503
C     -3.2794038325     1.4104345199     1.1425835195
C     -3.6853583525     0.6501119032     -0.0290433653
C     -3.0502575858     1.2164384485     -1.1488173992
C     -2.6557935538     2.5975733614     0.7192075115
C     -2.446065978     2.4878000307     -0.7182744592


