60

 C     2.0036164088     -3.6869592594     -0.7004118703
C     0.804348762     -3.793028986     -1.3385306522
C     -0.2318743715     -4.1529487686     -0.3575453626
C     1.7184445133     -3.8234296721     0.7736904392
C     0.3087637079     -3.9050867798     0.9574963008
C     2.4343066029     -2.8307612842     1.3861488955
C     2.8196214118     -2.5302888629     -0.9081050446
C     3.2962425441     -2.1615228193     0.3921006952
C     2.3685720712     -1.4820787075     -1.8049930795
C     0.2606028794     -2.7256558231     -2.1677011326
C     1.0057944932     -1.5362142124     -2.3798156634
C     -1.4182292656     -3.5831001479     -0.768670964
C     -1.1480619088     -2.6766521491     -1.9082703916
C     -2.2924491935     -3.1287112108     0.2403537926
C     -0.35242189     -2.9234510331     1.8078156712
C     -1.7131226191     -2.6933418215     1.5273409605
C     1.8274213386     -1.7948309702     2.1895878248
C     0.4114596087     -1.7798614626     2.3704961192
C     3.435026041     -0.8336664444     0.7674331845
C     2.5463720469     -0.5779919934     1.9131239676
C     2.9009068353     -0.2010871896     -1.5303929173
C     3.4717625009     0.1198864249     -0.2509366384
C     2.3000180887     1.0134810853     -2.0276194336
C     0.2518315671     -0.2859068776     -2.5989198556
C     0.9797149784     0.9864060128     -2.5707155378
C     -1.9038159818     -1.4905733605     -2.0687669003
C     -1.1946745291     -0.2673211178     -2.4403725431
C     -3.2767605464     -2.2311000073     -0.1284446428
C     -3.1380585669     -1.4156929644     -1.2974274233
C     -2.393554065     -1.4856618048     1.9255560112
C     -3.5106094603     -1.323892796     1.0160578929
C     -0.2277812277     -0.4771690647     2.5746057508
C     -1.6820652643     -0.3407175733     2.3778266126
C     1.9742946303     0.6834367068     2.0863204723
C     0.5948723707     0.7276209638     2.5671809692
C     3.1576594648     1.4781589797     0.0487020396
C     2.7190615716     2.1073807339     -1.1814228847
C     2.5172007378     1.8115600239     1.2830834758
C     1.9808554813     3.2889043583     -1.1125221313
C     0.2586361213     2.2312981983     -2.4990570227
C     0.8124003466     3.3920643985     -1.9180874456
C     -1.8586291055     1.0246163904     -2.1467410674
C     -1.1497657615     2.2149775142     -2.1716476799
C     -3.6696766812     -0.1375775975     -0.9419426917
C     -3.8675048994     -0.1035778141     0.5331469013
C     -3.0291602651     1.0312024262     -1.2787970161
C     -2.2490411746     0.9832733358     2.0517651071
C     -3.2729879418     1.0771734276     1.0419675975
C     -3.0047669831     1.9194362669     -0.0904978205
C     -0.0380803503     2.0141676696     2.5389750465
C     -1.4365239574     2.1237022022     2.1647070954
C     1.8472605894     3.0698678839     1.3375923563
C     1.7137215168     3.8817146746     0.1726187256
C     0.6309474285     3.1830833643     2.1107322908
C     -0.2243881327     4.0636978724     -1.1224539307
C     -1.4034034654     3.326631261     -1.2138105228
C     -2.1557303361     3.0237487502     -0.0114375523
C     -1.5415618861     3.2595619901     1.2736046403
C     0.339342203     4.3655051963     0.1584228042
C     -0.3063790321     3.9773023638     1.3476040783


