60

 C     1.4934370326     -3.8910721585     0.1686165549
C     0.6323863392     -4.0180399617     -0.8944881815
C     -0.7540862185     -4.0288333964     -0.3881374082
C     0.6673515668     -3.746964013     1.3915981193
C     -0.7244448197     -3.8349972954     1.0389283141
C     1.1627870917     -2.6550444401     2.0991966521
C     2.5119174675     -2.8795006553     0.1738173292
C     2.361907807     -2.1352682823     1.3966848071
C     2.7510763161     -2.1553472494     -1.0126444312
C     0.7036416187     -3.0987246396     -2.0076307401
C     1.8100852046     -2.2443813932     -2.1089742151
C     -1.5023020024     -3.1708962387     -1.1913423708
C     -0.6050823546     -2.5726295739     -2.2171745316
C     -2.5650432504     -2.3864786692     -0.6244593641
C     -1.6302683646     -2.9236543867     1.6113447013
C     -2.6495702147     -2.3094960023     0.8015924031
C     0.245058315     -1.7291435936     2.7243635861
C     -1.1464653885     -1.9019368229     2.5167982286
C     0.7110810345     -0.4021191062     2.9314431755
C     2.7337564373     -0.774398534     1.4893297165
C     1.9716115909     0.0393916142     2.3939445028
C     3.2222630433     -0.7934602464     -0.9307446842
C     3.3259128791     -0.1088586652     0.3190886437
C     1.6349470506     -0.9008944283     -2.6278666725
C     2.6915910331     -0.0885078546     -2.0725378763
C     -0.8028979868     -1.2216956927     -2.6379048198
C     0.3570137723     -0.3336867717     -2.8530635601
C     -2.9665412708     -1.2417452906     -1.3774604636
C     -2.0594155284     -0.64437345     -2.3240465487
C     -3.6615520619     -0.1728782957     -0.7455703911
C     -2.9909925632     -1.0260892638     1.4173103542
C     -2.0193645717     -0.7388052954     2.4151790009
C     -3.5365965836     0.0131231594     0.6524584684
C     -0.1809048431     0.7244301423     2.9898788299
C     -1.5462131475     0.5992100079     2.6294519961
C     1.9362256514     1.4781311768     2.2863048958
C     0.5939813364     1.9169776413     2.6748529092
C     3.3257040015     1.3249303376     0.2722834642
C     2.6387109955     2.1375223865     1.2934367127
C     2.5797645194     1.2859563677     -2.0615122833
C     3.1053305855     1.9894167944     -0.9463503903
C     0.1964622587     1.1421382322     -2.736802493
C     1.3342607866     1.927113302     -2.4517278046
C     -2.2419264747     0.8130721983     -2.2784997412
C     -3.2851451631     1.069189313     -1.3695651098
C     -1.1307862262     1.710891408     -2.4091172501
C     -3.1561325855     1.4064690462     0.9167225883
C     -2.1793995441     1.7199635504     1.9057976574
C     -3.123868778     2.0755003403     -0.3701134586
C     0.0105094256     3.0155223968     2.098232943
C     -1.415731825     2.9290848247     1.7081843607
C     2.0412957448     3.3153861694     0.6670695308
C     2.2873238248     3.1749004249     -0.7224547714
C     1.234210851     3.1726101135     -1.6770715642
C     0.753849432     3.7549390529     1.0712635261
C     -1.2225798113     2.9461743296     -1.6930315356
C     -2.2020700951     3.0854295732     -0.6170235172
C     -1.5159460922     3.635314275     0.4984830538
C     -0.0203121658     3.6519621264     -1.2792335893
C     -0.1898151825     4.0751714621     0.072892542


