60

 C     -1.9408883383     -4.3218499135     -0.4122498261
C     -0.5853641765     -4.7336275943     -0.5521073034
C     0.1147624381     -4.3443088486     0.6048096602
C     -2.0295729125     -3.604342753     0.8680447363
C     -0.7759417542     -3.5928690487     1.5130570372
C     -2.6946289138     -2.3314989329     0.7163636365
C     -2.1007444615     -3.2410830562     -1.3112856599
C     -2.7868040035     -2.1203714482     -0.7116399626
C     0.0557799132     -3.8917451143     -1.5821265529
C     -0.8880218419     -2.9470853656     -2.0609570358
C     1.3973190385     -3.773052273     0.2706027277
C     1.3395573866     -3.420787696     -1.1670417594
C     1.9339850297     -2.8524727061     1.1266872421
C     -0.2974079439     -2.3953213615     2.1726012129
C     1.105088151     -2.1644712483     2.1385808037
C     -2.3810102547     -1.217083501     1.5212021628
C     -1.1364331722     -1.2139290443     2.2748799585
C     -2.9496918714     0.0242979843     1.0595920989
C     -2.6289447584     -0.8423786787     -1.2255245512
C     -3.1445669126     0.2022285703     -0.3607540902
C     -0.5132515275     -1.5895525706     -2.3228550771
C     -1.511986346     -0.5403760993     -2.1222239389
C     1.7962096653     -2.1576336447     -1.566514089
C     0.8810713931     -1.2184020479     -2.2530122761
C     2.896157229     -1.9123074464     0.6377144025
C     2.8748292269     -1.5785567995     -0.7544755416
C     1.6901151346     -0.879445798     2.3308790381
C     2.9346869431     -0.8204485175     1.5686456546
C     -0.5327680283     0.0891191442     2.551107995
C     0.9060293777     0.2896771476     2.5144389102
C     -2.6605786316     1.1975355628     1.8117632394
C     -1.3452728695     1.2432885554     2.417768478
C     -2.9732167007     2.4766324963     1.3137401215
C     -3.1591298645     1.4936547154     -0.8989202532
C     -3.3191435593     2.6539620399     -0.0433603028
C     -1.1658677151     0.8353862486     -2.2950945092
C     -2.1524087123     1.8133940422     -1.8897845712
C     1.2532478707     0.1838185735     -2.3796162685
C     0.2340103767     1.2214125098     -2.4363946807
C     3.3858065288     -0.32989778     -1.1268860425
C     2.6053072059     0.54787211     -2.0318397178
C     3.4842600532     0.3870122179     1.2060989832
C     3.9795507013     0.522809032     -0.1510197678
C     1.4766912717     1.598926629     2.1170431986
C     2.7793251765     1.6183311679     1.5348506624
C     -0.7944318209     2.5728831643     2.1829181163
C     -1.8202695115     3.3649932226     1.5858827256
C     0.5773410826     2.7110803362     1.8215537394
C     -2.5685183066     3.7525774651     -0.5895944436
C     -1.7950249101     3.1814593732     -1.6382839922
C     -1.5775315271     4.0986615852     0.4114693579
C     0.5922688817     2.5739247775     -2.0091667243
C     0.8460551833     3.5470878091     0.644450709
C     -0.395598667     3.4458625115     -1.467520656
C     -0.2514468151     4.0046886425     -0.140316111
C     2.9489107051     1.8781139975     -1.7092492789
C     3.8212261987     1.8720840152     -0.5561308917
C     3.078867424     2.5411270608     0.4559352843
C     1.8841877758     2.8130277583     -1.4876531093
C     2.0038194659     3.2779687222     -0.119082508


