60

 C     -4.08813164     -2.2604612484     0.4535235737
C     -4.6864436685     -1.2597672599     -0.2543628036
C     -4.5484276678     -0.0258933826     0.4987955634
C     -3.4879743002     -1.6932460569     1.6773142487
C     -3.7455530381     -0.2601012397     1.6728217931
C     -2.1607310265     -2.1058096614     1.7194748953
C     -2.9945461409     -2.8172163529     -0.3499889093
C     -1.8958141544     -2.9374209761     0.4972047408
C     -3.8969151192     -1.0631409142     -1.5033373993
C     -2.8310981418     -2.0425104401     -1.5593052379
C     -4.1266817311     0.9750631409     -0.4150104377
C     -3.5783419662     0.2832470487     -1.6360119327
C     -3.4458643857     2.0503618921     0.0870231189
C     -2.6820713825     0.6617523553     2.0048900913
C     -2.7403441616     1.9304249136     1.3568397439
C     -1.0816903591     -1.2536576574     2.1778033656
C     -1.334532046     0.1565656803     2.3652497955
C     0.2566160853     -1.749286933     1.9706368389
C     -0.624570184     -2.8793993874     -0.0419041653
C     0.4445918008     -2.7264984696     0.9151939498
C     -1.5156571125     -1.6520922366     -1.9650923799
C     -0.4144208087     -2.3671953437     -1.3759668392
C     -2.2895504794     0.7070719575     -2.1595210831
C     -1.2274254947     -0.2692421656     -2.3760769779
C     -2.5692594102     2.7600746604     -0.7969705224
C     -1.9150436317     2.0496998912     -1.8806200256
C     -1.5766572687     2.7621203981     1.2493676972
C     -1.5807860378     3.4080707739     -0.0504228298
C     -0.175394712     1.0470778167     2.3769922311
C     -0.3412005643     2.3972819542     1.8490552804
C     1.4062889323     -0.9490568813     2.3172004122
C     1.1812785811     0.4870830744     2.4669339853
C     2.714629461     -1.441925115     1.9730827811
C     1.6925120137     -3.0063722518     0.4060712192
C     2.8537152528     -2.5790507612     1.1103846365
C     0.9364149021     -2.0875619811     -1.7636190566
C     1.9469735132     -2.7874958022     -1.0325517307
C     0.1598335546     0.1690698709     -2.4731862824
C     1.2421485708     -0.8134417927     -2.3938073773
C     -0.5405763346     2.4681020335     -1.9179003149
C     -0.3668377383     3.4172302379     -0.8163271751
C     0.5030599577     1.5772029681     -2.2421005163
C     0.8059673824     3.073517089     1.3095420764
C     0.804155143     3.4517820342     -0.1303219387
C     2.3057057585     1.3318137734     2.1585135025
C     2.0735155158     2.5979188536     1.5665709724
C     3.7860408395     -0.539849766     1.5515082962
C     3.536174819     0.8093866628     1.5595954933
C     3.9453522744     -2.4325414318     0.1962715005
C     3.3023658348     -2.414732409     -1.1348738838
C     4.4690898533     -1.1423485971     0.3883489826
C     2.6075141569     -0.3756621028     -2.3328255659
C     3.6290555448     -1.2133222466     -1.8017286582
C     4.4278957587     -0.4237176605     -0.8590738785
C     1.8627966165     1.9363653349     -1.7835535185
C     1.9971170295     2.9069598077     -0.7206620088
C     2.9070051822     2.6625212314     0.3417518908
C     3.7967512369     1.6062017717     0.3334371948
C     2.8914905687     0.9830612456     -1.881788654
C     3.9764843666     0.9029897528     -0.9024876683


