60

 C     -1.5939709072     -4.313678877     -0.3621860019
C     -0.301407379     -4.4538990458     -1.0030862801
C     0.6341325704     -4.5960651597     0.0419607779
C     -1.3734317932     -4.0259006068     1.0684406375
C     -0.0442213267     -4.2312720212     1.3562155763
C     -1.9916107314     -2.7571166682     1.3851513045
C     -2.2741929452     -3.2381352754     -0.9007748631
C     -2.6913646606     -2.3592479743     0.1816323522
C     -0.1511275723     -3.3378333752     -1.9179852822
C     -1.4248365686     -2.6184262692     -1.9075149709
C     1.0386493379     -2.542008285     -1.9470272767
C     1.8177215919     -3.8962823586     -0.0011336142
C     2.0895343835     -2.9334446352     -1.0233193073
C     0.7387412193     -3.1932208763     1.9733262045
C     1.9825995391     -3.1780917576     1.28692377
C     -1.2840581311     -1.7323717262     2.0892848547
C     0.1429092077     -1.9077538544     2.3621470624
C     -1.8264065073     -0.3883069825     2.0128954436
C     -2.9411104687     -1.034439382     -0.0871253974
C     -2.8495850701     -0.1176053873     1.0320023193
C     -1.5074856912     -1.2411613681     -2.1243617386
C     -2.5574559587     -0.5095755262     -1.4060387041
C     0.9580103103     -1.116967701     -2.3354003162
C     -0.3264715033     -0.4838361136     -2.5257062758
C     2.1027175428     -0.2404759326     -2.0730074423
C     2.8219642087     -1.8774509168     -0.3866984269
C     2.6552396011     -1.9972562634     1.0565214193
C     2.9975805723     -0.622410149     -0.9699206683
C     0.9804836027     -0.7252549043     2.387877272
C     2.3057240431     -0.8122574007     1.7841441242
C     -1.0534555016     0.7445579663     2.511354129
C     0.3943828355     0.6195814156     2.5460185092
C     -1.6377346106     2.0525523834     2.3719308995
C     -3.2706159136     1.2065325676     0.7712865759
C     -2.8012726705     2.253318388     1.5500763809
C     -2.6846095139     0.8575857656     -1.6185400755
C     -3.3140908743     1.671452541     -0.6205034238
C     -0.4448533293     0.9819332068     -2.627866849
C     -1.6635951988     1.635376986     -2.2669535162
C     1.9963304683     1.1411206171     -2.3482505043
C     0.7277402529     1.7640025353     -2.594640992
C     2.7932931191     2.1053551163     -1.6185063266
C     3.4637805588     0.3763358025     -0.0610561289
C     2.9467289233     0.332250959     1.3064598844
C     3.4687152613     1.7261021152     -0.4478722201
C     1.2106947476     1.7994526408     2.2674108035
C     2.4908164575     1.6504857973     1.6463093602
C     2.9440942036     2.5450842861     0.6309787267
C     -0.8044551155     3.1800561448     2.1338624221
C     0.5579537708     3.0567679101     1.9675523155
C     -2.5657859854     3.4141582964     0.6381555836
C     -2.805157717     2.9815846641     -0.7073870388
C     -1.6906304707     2.9508624485     -1.648044088
C     -1.3627547319     3.9623056747     0.9818507034
C     0.7305240518     3.0830131529     -1.9450276336
C     2.0056311927     3.2891975638     -1.3715062847
C     2.0822799838     3.535389894     0.0541053547
C     0.9201530292     3.8362571248     0.7446636921
C     -0.4593543229     3.6085995903     -1.3235116433
C     -0.3020234163     4.1204735391     0.0304148319


