60

 C     -1.7920236222     -4.2933200353     -0.953588558
C     -0.5801679085     -4.6908350974     -0.2728658573
C     -0.6763582527     -4.3271850247     1.0839779241
C     -2.5762123775     -3.5309993463     -0.0080220902
C     -1.9305990511     -3.5686516267     1.241415022
C     -2.8247218758     -2.2163038869     -0.5469192188
C     -1.3585456104     -3.3387534606     -1.9097983783
C     -2.0622367518     -2.0923880538     -1.7756810796
C     0.5788830182     -4.2075691309     -1.0123307097
C     0.080043812     -3.295172515     -2.0363244657
C     1.7232381348     -3.8445723484     -0.2964415531
C     0.364830555     -3.5821517104     1.7273026916
C     1.6168256726     -3.4951366073     1.1236165337
C     -1.6344251886     -2.3733208528     1.96013495
C     -0.23243251     -2.3615300925     2.3116150453
C     -2.8555168432     -1.087630197     0.2859813985
C     -2.2245023383     -1.136245266     1.5936688696
C     -2.8350271209     0.1740932529     -0.3918083227
C     -1.4588022381     -0.8577068088     -2.1329515424
C     -2.1046209267     0.3323380212     -1.6293063319
C     0.7331777368     -2.0535242693     -2.3232620739
C     -0.0423477619     -0.8071842105     -2.464216511
C     2.5605785299     -2.8539267143     -0.8758334755
C     2.0817340638     -1.9413815216     -1.8553629659
C     2.4192134038     -2.296648468     1.3416139215
C     3.1666324359     -2.0590927315     0.1652794516
C     0.4945565175     -1.1495228957     2.4812094202
C     1.9017894709     -1.159269011     2.0796221958
C     -1.6341348539     0.0798806641     2.1169752572
C     -0.2414798163     0.1173540488     2.524225299
C     -2.9719521085     1.2887680648     0.4530161366
C     -2.2420109654     1.2812754789     1.7139630917
C     -2.8513077559     2.5620862236     -0.0834626766
C     -1.593543359     1.6318538337     -1.9725420467
C     -2.2075863295     2.7759790604     -1.3274304579
C     0.605388911     0.4896383779     -2.3890217363
C     -0.1914521567     1.7126299713     -2.3577900679
C     2.6519056959     -0.6364282901     -1.5761718821
C     3.3679084784     -0.7411563072     -0.3129900347
C     1.9963943966     0.5564686169     -1.9040204999
C     2.4889955012     0.0930338317     1.8150543384
C     3.2629171083     0.299739395     0.5906670908
C     0.4491962003     1.4065664383     2.4498931415
C     1.8232091914     1.3351361397     2.0908706129
C     -1.6725653974     2.5946842898     1.9157352385
C     -2.2593995222     3.461103788     0.9260948598
C     -0.2680791641     2.6861457981     2.1875155141
C     -1.5086635968     4.0249967421     -1.187996871
C     -1.5486714018     4.4426581071     0.2700297098
C     0.488117091     2.9706787341     -2.1162424414
C     -0.2178529841     4.1665707678     -1.6360987984
C     2.4260312336     1.7543356341     -1.1904439412
C     2.9874006815     1.6008599819     0.1108733434
C     2.3716995492     2.3470046735     1.204928206
C     1.7331301802     2.9633859012     -1.4350586629
C     0.4369416503     3.8028589772     1.5771768018
C     -0.217260943     4.6997869704     0.6491620285
C     0.5804398162     4.808649486     -0.5790344892
C     1.7292556615     3.5251909561     0.9725945297
C     1.6940661343     4.0118542538     -0.4111947836


