60

 C     -1.9349897801     4.0607242247     -0.8737902537
C     -2.6891423944     3.262156125     0.0892332054
C     -2.0659241718     3.3500659924     1.3500700622
C     -0.7044639047     4.4213643054     -0.2212166906
C     -0.7937723697     4.0658958063     1.1407113465
C     0.4232727924     3.8770506474     -0.9601194618
C     -1.5711176379     3.1395966431     -1.8760883631
C     -0.1342630595     3.0753966551     -2.0236416861
C     -2.9854229064     1.968671099     -0.4477346911
C     -2.276792571     1.8951686043     -1.7432263539
C     -2.9473758094     0.82638563     0.3753484105
C     -1.7736626065     2.170202696     2.0671244104
C     -2.3242458331     0.91875039     1.6906888772
C     0.2439093112     3.3337910337     1.7773486784
C     -0.3634860879     2.1967951716     2.4382370728
C     1.6059500743     3.4322680198     -0.2964599094
C     1.5345439419     3.1801666472     1.161786767
C     2.4234294313     2.5532919911     -1.0705260908
C     0.4766975358     1.8603691529     -2.4419937696
C     1.8344364056     1.7181579699     -2.0957653488
C     -1.7115816961     0.6867809327     -2.1782721666
C     -0.3283391683     0.6476247648     -2.6322493124
C     -2.9320029893     -0.4609805147     -0.3087351299
C     -2.3311726569     -0.5319509158     -1.6464601318
C     -2.930435148     -1.6113537206     0.4729360523
C     -1.721402409     -0.2869612609     2.2235628488
C     -2.3160613144     -1.5168221798     1.810368631
C     0.3514251694     0.9953306878     2.678933656
C     -0.3487459982     -0.2889167311     2.6645502248
C     2.3338073128     2.135350602     1.6961823852
C     1.7390733301     1.0358743697     2.4235460712
C     3.4256348404     1.751593136     -0.4430661824
C     3.3976825974     1.5583830786     0.9207932742
C     2.4639229704     0.3985697843     -2.0423934683
C     3.4856416858     0.425203402     -1.0891378894
C     0.3205995865     -0.6357846892     -2.6903231015
C     1.7074954006     -0.7881280507     -2.2741495459
C     -1.8642308096     -1.7577390053     -2.0947000484
C     -0.5118550251     -1.808934202     -2.6600111237
C     -2.6218795292     -2.926222168     -0.0613547558
C     -2.1000339174     -3.0064385186     -1.374939179
C     -1.7099625971     -2.7344209965     2.0874622212
C     -1.9758813547     -3.6723588675     0.9878320917
C     0.412652252     -1.5326396927     2.5352716829
C     -0.2995358625     -2.7611153342     2.3635485821
C     2.4414272824     -0.1984168254     2.0689544986
C     3.4662691481     0.1122721244     1.175546548
C     3.5054219557     -0.5778130037     -0.0783911751
C     1.7614816058     -1.452040087     1.9994954949
C     2.0816589191     -1.9786536263     -1.5235214626
C     2.7711127315     -1.7772522041     -0.2499304616
C     2.1423985814     -2.3633770623     0.9279513204
C     0.0220938903     -3.0613641716     -2.3622771102
C     -0.9741312301     -3.8614384669     -1.6287776327
C     1.277352552     -3.1473509557     -1.6647867235
C     -0.8109034273     -4.4048036639     0.7455867957
C     0.2555592519     -3.8180709577     1.5827708925
C     1.3758707146     -3.5576164713     0.7510263917
C     -0.3116024041     -4.5100904267     -0.5804091821
C     1.083595499     -4.0241969167     -0.572420292


