60

 C     -0.1954170188     -4.3210037587     0.5527810482
C     -1.4381877866     -3.9873991637     -0.0172178856
C     -2.19910713     -3.2679670073     0.9715826755
C     -0.0815401826     -3.6042275811     1.8540623885
C     -1.2616308156     -2.8746031078     2.0190961307
C     1.176649275     -2.9245814368     1.8717080037
C     0.9657452777     -4.0603539203     -0.1561310712
C     1.9144831259     -3.3604554997     0.7363369466
C     0.9631005352     -3.3876538555     -1.4130489214
C     -1.5153537043     -3.276118951     -1.2715152126
C     -0.2971790386     -2.9578862668     -1.9756420766
C     -2.9230953447     -2.2728771848     0.3033274191
C     -2.5392084032     -2.2551604962     -1.1126373194
C     -3.1175277277     -1.0542636219     0.9432640132
C     -1.2000842426     -1.4807293446     2.4599149024
C     -2.2949684392     -0.6771602725     2.0875195706
C     1.3000632193     -1.5401252074     2.2951820141
C     0.0912261203     -0.8184095254     2.6703976962
C     2.4550275573     -0.8087338466     1.8080831878
C     2.6408428447     -2.4494533171     -0.0246571584
C     2.079117916     -2.4568233233     -1.3729770923
C     3.1096291355     -1.2429939858     0.5607407751
C     2.1039831001     -1.2478095768     -2.120228126
C     -0.285067944     -1.7084498863     -2.6831248096
C     0.9100532591     -0.8964390774     -2.8064996809
C     -2.508779381     -1.0178994704     -1.7999690278
C     -1.4000228323     -0.8176475606     -2.6759818818
C     -3.4123867729     0.1344695044     0.2090586422
C     -3.1107454043     0.190821995     -1.1869094597
C     -2.2690575278     0.7615493204     2.138302816
C     -3.126624412     1.2570766055     1.077174518
C     0.1173539484     0.6480799617     2.7545192846
C     -1.0990050622     1.4495055525     2.5176722748
C     2.5283770314     0.5752377965     2.1365124248
C     1.3670862516     1.2877995436     2.5907797348
C     3.2957977308     1.4754379816     1.3267399351
C     3.5484531058     -0.2532538061     -0.3629845151
C     2.9443137725     -0.1918002029     -1.6700901854
C     3.7578394531     1.0882030797     0.0669663976
C     2.5988890442     1.2106027259     -1.8996242724
C     3.2007498297     2.004403773     -0.8983085815
C     0.5389079905     0.4921385467     -2.9670999996
C     -0.896841972     0.5223052802     -2.9588028652
C     1.3033293006     1.5568473415     -2.4221093358
C     -2.7534857497     1.4844672455     -1.6959569832
C     -1.5570996406     1.6380596957     -2.5320653828
C     -2.9310615944     2.5297836926     0.549180639
C     -2.8001052376     2.6255815426     -0.8769468702
C     -0.9777903839     2.8185474046     2.0286447554
C     -1.9144743514     3.3521875269     1.1274643686
C     1.4613713421     2.6645294114     2.0443217865
C     2.6003180454     2.7402458142     1.2110015353
C     2.4269006613     2.9926974987     -0.1906672423
C     0.327793737     3.3468408779     1.6726980104
C     0.6001863043     2.7532545945     -1.8858161763
C     -0.8039679769     2.8204132641     -2.0974182691
C     -1.653381849     3.4965570821     -1.1676289867
C     -1.1525998171     3.9787028096     0.0324233092
C     1.1555146743     3.4286492576     -0.688914312
C     0.2326944539     3.8872833286     0.3135164967


