60

 C     -2.2681661048     -3.7302213443     0.6458813211
C     -2.470041974     -3.2356161929     -0.721938347
C     -1.2536618798     -3.2984290374     -1.4517736686
C     -0.9207213961     -4.0248761863     0.7771736472
C     -0.3093973469     -3.9533604911     -0.5479352451
C     -0.3232572972     -3.1793185747     1.8224759266
C     -2.5450783009     -2.602973816     1.5014676872
C     -1.3341475816     -2.2515184904     2.2279000727
C     -3.1904188519     -2.0118084552     -0.6490930516
C     -3.21331173     -1.5997923882     0.7753807818
C     -2.9208269007     -1.0306063221     -1.5842709799
C     -0.798651983     -2.1559043455     -2.2335798079
C     -1.7267089422     -1.1012816408     -2.3998184368
C     0.6207107982     -1.8022200875     -2.3004723498
C     1.004957965     -3.6347991401     -0.6053276418
C     1.5369186865     -2.7232088711     -1.643773944
C     1.0288327844     -2.7947686438     1.7383946703
C     1.761641351     -3.3596893721     0.6215159931
C     1.415359006     -1.4537457444     2.2359284049
C     -1.0250299217     -0.8877223459     2.4772913217
C     0.3802758047     -0.4793018224     2.552797749
C     -3.0524988661     -0.2377321687     1.1256278711
C     -2.0447437965     0.0894836085     2.1206468354
C     -3.1652021863     0.3477680464     -1.2586927724
C     -3.3737485492     0.7648960763     0.1022519367
C     -1.3009376748     0.2497894698     -2.6430479603
C     -2.3220724722     1.1382331617     -2.0989593963
C     1.0604496894     -0.4244307143     -2.4857244509
C     0.0560088802     0.634926174     -2.6643326109
C     2.42069117     -0.0341576737     -2.0372183477
C     2.80691512     -2.3476259991     -1.2471511785
C     2.9238359278     -2.7294250757     0.1873507325
C     3.2656673825     -1.006718593     -1.3697511415
C     2.7106275592     -0.9587675368     1.8559883842
C     3.4662675337     -1.6489248406     0.8598062301
C     3.9152966501     -0.6648491174     -0.1326251045
C     2.9561967647     0.4551177439     1.6476884676
C     3.7359335034     0.5979792416     0.4093589128
C     0.7071846931     0.9628516707     2.5164325559
C     2.0100906867     1.4293324324     2.008404383
C     -1.7225615248     1.4601842333     2.2877498457
C     -0.3477876859     1.8931465381     2.5006573209
C     -3.141458009     2.132548725     0.3906770285
C     -2.421098657     2.4638710335     1.5929006449
C     -2.0382282162     2.4613183264     -1.7687729292
C     -2.6356815942     3.0184439402     -0.6159021585
C     0.3633126498     2.0597225276     -2.3538045841
C     -0.6685974815     2.954000148     -1.9286265054
C     2.6645094448     1.3141996036     -1.6897113625
C     3.4008053423     1.6411406864     -0.4714447686
C     1.6815538747     2.374751698     -1.9056103075
C     2.0862615691     2.7014904529     1.3130656373
C     2.7862822349     2.7643124473     0.0803707877
C     1.8690157763     3.345119485     -0.8938476733
C     -0.2236598053     3.2258752745     1.8933303174
C     -1.5133999481     3.5689594598     1.3365816753
C     -1.6260131129     3.8818035011     -0.0148186854
C     -0.453985221     3.9121515946     -0.8565638405
C     0.9217682213     3.56111251     1.1966774226
C     0.7937239419     3.9592653207     -0.2271854148


