60

 C     3.8531792313     -1.8569534434     -0.1364581261
C     2.89028261     -2.8342552945     -0.4927287449
C     2.1571665383     -2.3772550656     -1.6320249229
C     3.7504550634     -0.739871298     -1.0318631239
C     2.6710760008     -1.0236689523     -1.9301956734
C     3.6357423185     0.4542774388     -0.2631151916
C     3.480412401     -1.3736766425     1.1495827161
C     3.4291687931     0.0443729689     1.1265436395
C     2.14666766     -3.18853251     0.6990271444
C     2.3655256186     -2.1186720571     1.6775461411
C     0.890581824     -3.6665907766     0.5314316368
C     0.7783450472     -2.6905960415     -1.7664667961
C     0.2672558931     -3.6404241348     -0.8051458772
C     -0.1481580585     -1.7095607361     -2.3279494701
C     1.7908678291     -0.0138428847     -2.3810390116
C     0.4138467762     -0.4013298379     -2.7214895228
C     2.9329157391     1.5611207373     -0.7874690642
C     2.0936401898     1.3725204154     -1.9739103027
C     2.5416043528     2.5264290002     0.1692952476
C     2.4693419343     0.7138330114     1.9035519854
C     2.3317911753     2.0967651516     1.5499494715
C     1.2488670773     -1.4535077052     2.2685520592
C     1.3215086482     0.0002835236     2.4685535653
C     -0.1468678213     -3.3438073524     1.4907300859
C     -0.0681307829     -2.1220369811     2.2303160723
C     -1.0979578624     -3.7640438326     -0.6175328929
C     -1.3643096271     -3.7284325462     0.8538621257
C     -1.5814130805     -1.8236608011     -2.0597383188
C     -2.0473865803     -2.941619955     -1.2572287568
C     -2.4217452437     -0.6001300217     -2.0545042547
C     -0.4918140889     0.6497411968     -2.9719806459
C     -1.8661660411     0.5850950878     -2.5477926005
C     1.1401842799     2.3799522855     -2.2388547183
C     -0.0782860476     2.0101658101     -2.8339496589
C     1.5738921073     3.563291773     -0.1183778771
C     0.8543402197     3.490544859     -1.3068219394
C     1.3163667225     2.8559339078     2.1119836899
C     0.887292999     3.8592321492     1.1230326367
C     0.104807136     0.7590242845     2.7053332091
C     0.166068923     2.2071647154     2.6563785532
C     -1.3057787153     -1.339084798     2.3958053075
C     -1.2068202508     0.1169719656     2.5112620884
C     -2.5334845378     -3.0838311354     1.0817191527
C     -3.0867929216     -2.7203061052     -0.2648736369
C     -2.5435012398     -1.8911159592     1.8961509014
C     -3.4467915904     -0.4353112146     -1.0330107651
C     -3.7033595947     -1.5164567467     -0.1331678823
C     -3.4779892246     -1.0263260146     1.2418911333
C     -2.2728628562     0.9411182307     1.9567119318
C     -3.4372316027     0.7542952547     -0.2476196636
C     -3.2886947254     0.3345852819     1.1673332288
C     -2.2130082937     1.9039940072     -1.9961580056
C     -1.1542673112     2.7858000814     -2.2671868568
C     -0.6090563163     3.6670422953     -1.2809401962
C     -2.8448443506     1.949304635     -0.7056697503
C     -0.4807298496     3.9341726695     1.1652598083
C     -0.9533937772     2.9746461781     2.1735576759
C     -2.04386096     2.3178503731     1.6396458832
C     -1.2747987988     3.7815250331     -0.0358813247
C     -2.3136932583     2.8338465222     0.2761386813


