60

 C     -0.35837178     -4.3553863879     -0.1521914842
C     0.7521217969     -3.9155546684     -0.93946994
C     1.7557225563     -3.3613055514     -0.1148392029
C     -0.1317483983     -3.8869024813     1.1669899933
C     1.1703429794     -3.302245624     1.2458716604
C     -1.2332840314     -3.0545542862     1.5780514495
C     -1.5014498524     -3.6396923029     -0.6358106225
C     -2.128339745     -2.9356755038     0.4361424366
C     0.2560880394     -3.1179790253     -2.054534049
C     -1.1816010523     -2.8998438634     -1.8224197713
C     1.0232697825     -2.0859394625     -2.5421697565
C     2.5641398713     -2.2747554109     -0.5970911092
C     2.264168604     -1.6970244986     -1.8877844436
C     3.1312365729     -1.424072024     0.3714952695
C     1.4210604311     -2.1842075007     2.0781756846
C     2.6041179696     -1.4330323324     1.7504789203
C     -1.0386654458     -1.9455606465     2.4373114201
C     0.314096968     -1.4827670926     2.747848759
C     -2.112973937     -0.9969310487     2.4154906734
C     -2.852697879     -1.7408707568     0.167897256
C     -3.0192923602     -0.8855752697     1.2799015627
C     -1.7997489229     -1.6523611195     -2.1157132965
C     -2.8080346613     -1.1500848539     -1.1783376468
C     0.3861912636     -0.8957376768     -3.0486338806
C     -1.0168517553     -0.6885424706     -2.9097487947
C     2.4431369526     -0.3061649138     -2.1213574628
C     1.3034201407     0.1884549282     -2.8871434914
C     3.5386490533     -0.0769468739     0.0636061498
C     3.1126066362     0.5446345448     -1.1711732117
C     2.8213254074     -0.1669549847     2.2826113201
C     3.4470412189     0.6653118313     1.2733772881
C     0.4996877602     -0.0762342761     3.1204221453
C     1.7467703229     0.5718332754     2.853136503
C     -1.93344858     0.3001262353     2.9245201293
C     -0.6315836681     0.8048116512     3.1648655774
C     -3.3563324232     0.5266567562     1.1279641835
C     -2.7134249097     1.2618620637     2.1871456955
C     -3.1999870333     0.209548191     -1.2919269885
C     -3.4415004817     1.0622903622     -0.1351297042
C     -1.4515683801     0.6663161007     -2.9796602041
C     -2.6055051636     1.041286939     -2.271162438
C     0.872004197     1.5484232508     -2.8137461866
C     -0.5196114479     1.7952736835     -2.9378508374
C     2.7538975998     1.9218173711     -1.1405050007
C     1.6653848144     2.4492445497     -2.0071035339
C     2.8728065543     1.9443970159     1.3186230528
C     1.7990394538     1.9252686092     2.3163699558
C     2.6766578207     2.6332282322     0.1045736033
C     -0.5997300805     2.1352148909     2.6044818023
C     -1.8777345881     2.3479733178     1.9034817679
C     0.6021598937     2.6687880614     2.0972400892
C     -2.7966506302     2.3756092726     -0.3925568744
C     -2.4187508264     2.3864313576     -1.7425030118
C     -1.1554442708     2.8677702609     -2.1745908948
C     -1.9226376362     2.9836448524     0.5999210473
C     1.0400887604     3.5027254722     -1.3382203162
C     1.5814099994     3.5544283033     0.0100705615
C     0.5181931015     3.521304149     0.9082460213
C     -0.3853385434     3.6086902412     -1.2680994354
C     -0.7445280379     3.6195371368     0.1351615114


