60

 C     -1.790328837     3.6002081385     1.5928217606
C     -0.668451366     4.1079341773     0.8875423189
C     -0.8440021296     3.8448569744     -0.515948552
C     -2.6840314852     2.9652490611     0.6483221271
C     -2.141989522     3.1729477642     -0.6621000522
C     -2.9742797262     1.6508603017     1.0944397552
C     -1.3539591945     2.6086029359     2.4983060795
C     -2.1256653774     1.3978416561     2.2663032926
C     0.5153983039     3.6028000633     1.5462059134
C     0.0807777834     2.576723553     2.515267652
C     1.6222483531     3.3723944379     0.780411248
C     0.2764909664     3.4580044557     -1.3266859429
C     1.5642221872     3.506361807     -0.6791176276
C     0.0848674651     2.4344861635     -2.3862964713
C     -2.2793888097     2.1355135134     -1.5823498552
C     -1.1813482222     1.7860237062     -2.4832799065
C     -3.1554713479     0.5988609427     0.1595735214
C     -2.944222946     0.923486828     -1.212347983
C     -2.9140580691     -0.7747067462     0.6092134887
C     -1.5393150709     0.1544313982     2.4561556481
C     -2.1123846165     -1.0298030822     1.7776632106
C     0.7420863521     1.3384249804     2.5983715974
C     -0.1050746871     0.1399019893     2.8193859284
C     2.4991244818     2.2379373849     1.0895035012
C     2.041122498     1.1724126236     1.9412973641
C     2.6305336122     2.7234390288     -1.1717158009
C     3.2441388099     1.9489013341     -0.0550480369
C     1.2011003501     1.62945551     -2.8051879208
C     2.4917607996     1.8625174372     -2.2433929979
C     1.0829780389     0.1937244539     -2.9740291723
C     -1.2941144885     0.3936364498     -2.8090424223
C     -2.4404931516     -0.1094574772     -2.1009330644
C     -0.1531353189     -0.4606373044     -2.9515031781
C     -2.9451659871     -1.7977221677     -0.4013461099
C     -2.5254242375     -1.421508196     -1.7607159498
C     -2.4668667003     -3.0724694858     -0.1505502709
C     -1.4900550799     -2.3402124278     1.9800697445
C     -1.7636556691     -3.4143768368     1.048239534
C     0.519449731     -1.0829526676     2.8419826776
C     -0.1922177641     -2.3543245632     2.6179529563
C     2.5153716754     -0.1539116363     1.6456415631
C     1.8853725338     -1.2268665389     2.3518215088
C     3.4438379664     0.6176594936     -0.4961044852
C     3.0838280273     0.56606107     -1.884239034
C     2.2357176486     -0.4403439143     -2.334792903
C     3.1072406046     -0.4727214238     0.352959693
C     2.1051860226     -1.6714007297     -1.6112819178
C     2.7240596274     -1.7273784843     -0.2929579106
C     -0.2164510013     -1.8789144423     -2.5376506085
C     -1.4941979192     -2.3747372427     -2.170163823
C     -1.6364468667     -3.493042816     -1.3003084529
C     0.9666045443     -2.5235722856     -1.917717174
C     -0.7069134503     -4.3176353856     0.6401419694
C     -0.5555056379     -4.191230285     -0.825593192
C     0.7778339701     -3.7048388649     -1.110787398
C     0.7856759496     -3.2949684776     2.2388692381
C     2.0139040425     -2.5328071714     1.9170953065
C     2.3739990116     -2.821582251     0.5572478164
C     0.5601876392     -4.1925441612     1.1831218906
C     1.5194955833     -3.844992468     0.0972598083


