60

 C     0.3212894579     4.4661705639     1.6284288412
C     0.2420499499     4.7523323926     0.2002124777
C     -1.0494760454     4.4561887213     -0.2326967934
C     -0.9110234783     3.8103907523     2.0247327762
C     -1.7698242053     3.8582207708     0.9169217374
C     -0.5949278249     2.48371337     2.5503366917
C     1.3306975986     3.5018910675     1.7440049329
C     0.8392394064     2.3323567433     2.4377165566
C     1.3581876412     4.1171284988     -0.492306702
C     2.0536163689     3.3078828358     0.4998656378
C     1.1420008934     3.5555399318     -1.7627454327
C     -1.2827333589     3.6018642291     -1.3688527839
C     -0.2278642101     3.2436711736     -2.2042443558
C     -2.4307999177     2.691296735     0.4627698222
C     -2.207583401     2.5498883537     -0.9581431658
C     -1.4334539613     1.3542799648     2.3207218053
C     -2.4490410895     1.5073894382     1.2843236076
C     -0.8707687992     0.0322081259     2.5355299194
C     1.3938907659     1.0739293035     2.1992199361
C     0.57647648     -0.0638936174     2.5978290737
C     2.5718096438     2.0173097344     0.1939449914
C     2.3889996917     0.9123799285     1.135561059
C     1.9436061784     2.4439406029     -2.1373028861
C     2.6544714429     1.6648027856     -1.1957697927
C     -0.2000346062     1.9010404022     -2.8136841586
C     1.1491472098     1.5156297207     -2.9170446467
C     -2.2139625226     1.2610689973     -1.5690216287
C     -1.1679900674     0.8885946579     -2.5194348009
C     -2.8650334836     0.3455550106     0.6431927971
C     -2.8066453342     0.231205275     -0.7999064652
C     -1.5958291313     -1.175374611     2.1443331841
C     -2.6145387486     -0.9596242862     1.1782648373
C     -0.976705739     -2.5173159179     2.205407688
C     1.1638189081     -1.3185679005     2.4893656141
C     0.4175558357     -2.5702431632     2.5301836186
C     2.6623450748     -0.4273585976     0.7232773715
C     2.3044214905     -1.4705358255     1.6170562369
C     2.5473905278     0.2685992265     -1.6031535278
C     1.5608189669     0.1907259193     -2.6609482665
C     2.6808972556     -0.788619052     -0.7060307488
C     -0.7822690097     -0.5181481614     -2.6073593662
C     0.6343407956     -0.8661487088     -2.6558739651
C     -2.6563287913     -1.141028939     -1.1297708684
C     -2.7909019655     -1.9071142671     0.106548101
C     -1.6663889978     -1.5383424509     -2.0758342554
C     -1.4924820817     -3.58050463     1.357970063
C     -2.3126153919     -3.1832478791     0.2158946866
C     -0.6365161465     -4.6249268006     0.8526687515
C     1.2483453269     -3.5550201922     1.9165362683
C     2.2892459068     -2.8073064955     1.1863463734
C     0.7499132641     -4.5358283257     1.0731821007
C     2.1938056464     -2.0944878106     -1.1367957859
C     1.1188139867     -2.1272592912     -2.1125465619
C     2.2650056037     -3.1804772749     -0.1801698208
C     1.414094539     -4.3279582083     -0.2738267763
C     -1.1989407054     -2.8903223469     -1.9801218416
C     -1.7684692278     -3.8092336048     -0.9806472192
C     -0.8424767     -4.7672782069     -0.600396853
C     0.185241447     -3.2069622979     -2.0691714444
C     0.4140874371     -4.3840666695     -1.2285466447


