60

 C     -0.1264878397     -3.7348839539     1.7538157015
C     -0.7292002129     -4.1487794033     0.5494638212
C     -2.0316847027     -3.559351882     0.445258982
C     -1.0224709941     -2.7927871289     2.3775458325
C     -2.1842885154     -2.6470993923     1.5508422371
C     -0.2853236004     -1.6356377166     2.7143491339
C     1.1924768017     -3.1598515683     1.7359291303
C     1.1209175424     -1.8646960296     2.4026644694
C     1.9857346198     -3.274500403     0.5930322941
C     -0.0237275861     -3.963422921     -0.7015956042
C     1.3519077455     -3.7106479196     -0.6729981826
C     -2.1509956957     -3.031138881     -0.880144103
C     -0.8802925068     -3.182381072     -1.5834844337
C     -2.8967558015     -1.9013060422     -1.0864275292
C     -2.7625601716     -1.3595564771     1.3503493238
C     -3.4014992066     -1.1555369426     0.0746164242
C     -0.8451581077     -0.3258492031     2.6016561712
C     -2.1681781555     -0.1746607474     2.0005102602
C     0.1018207081     0.7826160508     2.6442675
C     2.0083857553     -0.8017492251     2.1159858413
C     1.5405684733     0.5507863455     2.4130814383
C     2.9307840504     -2.2199492121     0.2914628708
C     3.0272063529     -1.0341613461     1.0888066968
C     1.8794571044     -2.8682024091     -1.6783508121
C     2.9438539719     -2.0730238598     -1.1260953957
C     -0.362358021     -2.0931241631     -2.3610348492
C     1.06140775     -1.9949557917     -2.4471221754
C     -2.4863761595     -0.8969809912     -2.0626396816
C     -1.1331682835     -0.8586401996     -2.5482941008
C     -3.6789426522     0.1376214712     -0.3700392764
C     -3.1461435255     0.2885748539     -1.7272453421
C     -2.5778589639     1.1490924144     1.5719824397
C     -3.3389374509     1.2878138864     0.3547154332
C     -0.4128707255     2.0799168892     2.4359623939
C     -1.7542520203     2.2683894357     1.9158571963
C     0.4201493121     3.1926936523     1.9718387219
C     2.3188993285     1.641614343     1.9273144885
C     1.7224614394     2.9365393258     1.6094645399
C     3.5562035251     0.117015703     0.4231242462
C     3.3038558499     1.3842456484     0.9403717414
C     2.9528625655     -0.8070152729     -1.7602797998
C     1.7135372182     -0.6970656768     -2.5483089838
C     3.4037895829     0.2603467974     -1.030960832
C     -0.4762782923     0.4445803263     -2.6621458899
C     1.0019161664     0.509571814     -2.6022543812
C     -2.5591073472     1.5527179486     -1.8481848608
C     -2.9240852131     2.2895277436     -0.6285690837
C     -1.2269540096     1.6616901662     -2.3575874956
C     -1.7366240442     3.4450593715     1.1102584873
C     -0.4045531792     4.0074946166     1.1116071407
C     -2.1977163769     3.3883542147     -0.2495151298
C     -0.5248837067     2.8803919103     -1.9866741518
C     -0.0198917549     4.254739776     -0.211657382
C     -1.0922295429     3.8043664136     -1.0903706951
C     2.1802922438     3.3282690202     0.2515387579
C     3.0831080245     2.347186714     -0.1552987666
C     2.9074208946     1.5875041803     -1.3315668279
C     1.6896385807     1.7366678564     -2.0994732405
C     1.2300471269     3.7584403786     -0.6940719145
C     0.9331517316     2.8931263633     -1.8252830947


