60

 C     -0.7236126639     4.2818223675     1.8448902506
C     -0.5655066476     4.6726392579     0.4495744504
C     -1.6465290155     4.1611298668     -0.2699793042
C     -1.849801162     3.3644679806     1.9259301089
C     -2.451140845     3.3259458609     0.6631226809
C     -1.3988596681     2.1001045506     2.4678356809
C     0.4112979325     3.5242509339     2.1452082488
C     0.0296731883     2.2154371535     2.6492489938
C     0.7779169253     4.3366955699     -0.0031297302
C     1.4065384097     3.5944912809     1.0837834882
C     0.9581273156     3.8628389088     -1.3155364904
C     -1.446913469     3.3892403126     -1.4617769914
C     -0.186740721     3.3342402316     -2.0661353791
C     -2.7354049716     2.0916036818     0.025695283
C     -2.1851242044     2.1434829504     -1.3179354974
C     -1.9036052808     0.8654081823     1.9879183592
C     -2.6478941591     0.8574589961     0.7442105819
C     -1.1518574935     -0.3317003698     2.3038774044
C     0.8693033477     1.106450568     2.4791750687
C     0.254695648     -0.2073155028     2.5882299687
C     2.2497960137     2.4777097224     0.8506879886
C     2.0902086664     1.2641249497     1.6833293087
C     2.0411076887     2.9715734225     -1.5500001269
C     2.6992159554     2.2894031991     -0.5071704305
C     0.2409229037     2.0932652135     -2.71086708
C     1.6368918455     1.9526812841     -2.5085928869
C     -1.7960293576     0.9512585045     -1.9564086179
C     -0.5303026621     0.900756472     -2.6810764783
C     -2.6823144912     -0.3594525069     -0.0183075917
C     -2.3302240581     -0.2742279132     -1.4193387138
C     -1.6939369168     -1.6077845104     1.875278423
C     -2.5241301573     -1.6222872742     0.6720842103
C     -0.9505457598     -2.7794800952     2.2049467493
C     1.0789787984     -1.3792917029     2.4332752807
C     0.4587321177     -2.6534040251     2.4032780432
C     2.6997866563     0.0699844314     1.2566289707
C     2.2975930047     -1.2162743949     1.7082755708
C     3.0119098126     0.9496522415     -1.0055467118
C     2.2654555925     0.7161478907     -2.2324214557
C     3.1325455127     -0.0896296547     -0.1371039446
C     0.1666317997     -0.3905407743     -2.7820003027
C     1.5811850255     -0.506699764     -2.4329327679
C     -1.9376271599     -1.4629633677     -2.0731316047
C     -0.6066001685     -1.5476048487     -2.649728191
C     -2.5349457266     -2.8255486989     -0.1198962035
C     -2.2159311181     -2.6995394798     -1.4956013418
C     -1.1583144862     -4.044336026     1.495007586
C     -1.8911621782     -4.0343063525     0.3302044001
C     1.0993355903     -3.7770010604     1.7027149556
C     0.1456231969     -4.6618969702     1.2354697971
C     2.5990401049     -2.1974541066     0.6576603874
C     2.8121082553     -1.4328973434     -0.5445901709
C     2.0129539492     -1.6963493719     -1.690126172
C     1.9945720599     -3.4240634633     0.6109148065
C     -0.058344249     -2.871254691     -2.3535295606
C     -1.1371647941     -3.6510271679     -1.833931576
C     -0.9847926296     -4.5301136117     -0.7761770271
C     0.2939669004     -4.7481781683     -0.2205228587
C     1.2254549395     -2.9407802729     -1.7109336912
C     1.3837869574     -3.9008622961     -0.6340278474


