60

 C     1.1496645901     4.6965646826     -0.1640593969
C     -0.2481725663     4.6903747731     0.1919716601
C     -0.394133619     4.1740818929     1.5022309939
C     1.8417674574     3.9549069964     0.8565761043
C     0.9286949235     3.6752061232     1.9005685591
C     2.4519646414     2.7976314388     0.2493511692
C     1.2320627423     3.9052922479     -1.3493085015
C     2.1281702032     2.7967508671     -1.1650272971
C     -1.0342154991     4.101431095     -0.8919016452
C     -0.0811328332     3.6462073358     -1.9030559344
C     -2.0989548378     3.2556399692     -0.5674989623
C     -1.3397022333     3.1539530303     1.7838396248
C     -2.2852083417     2.8053651371     0.804233083
C     0.7755553382     2.3679707708     2.4354247452
C     -0.6284508277     2.0456721758     2.4581620889
C     2.5030247152     1.5471233554     0.9156916652
C     1.6581587133     1.3092588839     2.0777318436
C     2.8465399837     0.4008121772     0.1167288577
C     1.9163413746     1.5626027982     -1.8536798951
C     2.4629021194     0.3485822364     -1.286656782
C     -0.2909236364     2.4390337032     -2.5770667669
C     0.7522030683     1.4389273127     -2.6565844724
C     -2.4092899886     2.1026170214     -1.4101013891
C     -1.5299717481     1.7080001324     -2.412018474
C     -2.7752131986     1.4529368299     0.7691548877
C     -2.9677122469     1.0544961546     -0.5936302202
C     -1.0998117918     0.7093118411     2.443440724
C     -2.3393874105     0.4737654874     1.7156858623
C     1.2462844747     -0.0478755923     2.3871474054
C     -0.1574562204     -0.3906456265     2.5883274888
C     2.9873987782     -0.8051351979     0.829805422
C     2.1009471714     -1.0725170083     1.9589873054
C     3.129689123     -2.0091834578     0.1449454985
C     2.0902696079     -0.9419628847     -1.8215879181
C     2.6309661867     -2.1065883861     -1.1905792328
C     0.1368775197     0.1348460477     -2.8100980693
C     -1.2699066125     0.2853038373     -2.6314521922
C     0.7934124478     -1.0704843985     -2.4861688576
C     -2.922902213     -0.3168522477     -0.9635248478
C     -2.0182974195     -0.751043844     -2.0298540033
C     -2.6774707405     -0.8472506471     1.4350571784
C     -3.1271502485     -1.2203537028     0.102282751
C     -0.5893148951     -1.7853539525     2.4222020415
C     -1.9359381532     -1.9631923791     1.9696333307
C     1.7483821757     -2.4797078773     1.9489900063
C     2.5582603291     -3.0912689452     0.9379115067
C     0.38089369     -2.8773748311     2.1485030549
C     1.9566215689     -3.3554476271     -1.2977089433
C     1.997619012     -4.0164178736     0.0488446698
C     -0.0282161855     -2.2685272491     -2.296573203
C     -1.4470704745     -2.0975622686     -2.0144198673
C     0.6527511144     -3.4595288815     -1.8070512414
C     -2.8662771861     -2.5860303988     -0.0762469642
C     -2.2959152019     -3.1146732155     1.1850627316
C     -2.1013019322     -3.075113908     -1.1477925299
C     -0.0535307429     -4.0604891308     1.4055063997
C     0.7547386518     -4.5428605501     0.3146933513
C     -0.052396659     -4.3938782163     -0.9383195813
C     -1.3981752448     -4.0969717612     0.8943060607
C     -1.3485605133     -4.1903745949     -0.6010309832


