60

 C     1.1229647487     -4.1178247374     -0.8891926587
C     1.4033922547     -3.9238127132     0.4430717851
C     2.5019611787     -2.9207853359     0.5615228182
C     1.9189847483     -3.0850267853     -1.6322177462
C     2.7621864502     -2.36790439     -0.725487993
C     1.0227253037     -2.3888361854     -2.4568299458
C     -0.2223873898     -4.0387733597     -1.3219096423
C     -0.2627518906     -3.032339236     -2.3495930463
C     -1.2956578037     -3.7870326624     -0.4084902191
C     0.3884492987     -3.5974215977     1.4012093126
C     -1.0030243938     -3.5823356409     1.0103105356
C     2.2357321952     -2.0970449196     1.6422650624
C     0.9233507144     -2.509716646     2.1837979863
C     2.6392165994     -0.7274792762     1.6083372185
C     2.9481322113     -0.9667779918     -0.8643286089
C     3.1540576561     -0.1877481046     0.3544044471
C     1.1076434984     -0.9595046067     -2.5827556786
C     2.2715093383     -0.3082601579     -1.9876075185
C     -0.1060596358     -0.1960207064     -2.7545156325
C     -1.429295265     -2.2544325773     -2.1999152023
C     -2.1734158932     -2.833447622     -1.0707212635
C     -1.3930074324     -0.8593572092     -2.4275568972
C     -2.9988337655     -2.0097335608     -0.3307902277
C     -1.8510680248     -2.6766428175     1.7304732831
C     -2.9706414478     -2.0776522132     1.0947561296
C     0.0900143701     -1.5259007942     2.7884840988
C     -1.3083143943     -1.6503924907     2.609164975
C     1.92296348     0.1576206369     2.4631951721
C     0.6362528645     -0.2122474063     2.9786550796
C     1.9267413442     1.5861083746     2.2538068287
C     3.2191009871     1.2284163121     0.2209535057
C     2.6354175547     2.1453356121     1.2097287385
C     2.3241932716     1.090954563     -2.0548845397
C     2.9874090572     1.8197926581     -1.0299953618
C     -0.0355436666     1.2635579517     -2.7454142888
C     1.2086900287     1.8953232455     -2.5130790281
C     -1.2318999366     2.0330879463     -2.43620529
C     -2.450973903     -0.0517707454     -1.7960516064
C     -3.1903447163     -0.6223410748     -0.7184121103
C     -2.3607907138     1.3449569414     -1.8202403309
C     -3.1540433096     -0.7395793716     1.5894816308
C     -2.1359419336     -0.4453158659     2.5131872339
C     -3.3565668453     0.1521798038     0.4942317627
C     -0.21224869     0.9619765132     2.9688458869
C     0.5999855533     2.0935883908     2.6072394337
C     -1.573247421     0.871322986     2.5740146243
C     0.0546464938     3.175191903     1.9490418314
C     2.0982496513     3.3216042129     0.5199739004
C     2.32166375     3.0994763986     -0.8676933797
C     1.286569995     3.2043904673     -1.8326311064
C     0.8428115823     3.8573587236     0.9055834838
C     -1.1559244115     3.3325179189     -1.9138921304
C     0.1040560114     3.8766756152     -1.4696807913
C     -0.0626035995     4.2685787079     -0.0981534185
C     -2.7820329189     2.1462321504     -0.6971784651
C     -2.9627765965     1.510430377     0.5700445008
C     -2.1149363103     1.9360690011     1.7012980133
C     -1.3461762979     3.1206910793     1.5336026651
C     -2.0996039411     3.3887068216     -0.7959744521
C     -1.4189596432     3.8713135899     0.3107163363


