60

 C     3.5493321376     -2.3618460755     0.5665044241
C     2.8389549607     -2.9655973379     -0.4987259582
C     2.5482450527     -1.9572474739     -1.5368452183
C     3.7340495314     -1.0165768279     0.2310437328
C     3.1975060877     -0.7705997029     -1.1124369517
C     3.1403382716     -0.2034282615     1.2417433474
C     2.6164856104     -2.3964492496     1.7101212739
C     2.3295956986     -1.0589262732     2.105867779
C     1.7536234059     -3.7059167553     0.0195229618
C     1.5480240148     -3.2674250025     1.4411157304
C     0.6528665462     -3.8878011212     -0.7976998067
C     1.2486485387     -1.8895216386     -2.1579676656
C     0.3701373601     -2.9786200917     -1.924467437
C     0.6739453862     -0.5794199338     -2.4652346769
C     2.691877003     0.5010577319     -1.4330111159
C     1.5170540465     0.5950820185     -2.2797264274
C     2.7628286903     1.1057831538     0.9489925325
C     2.8739984157     1.5558145181     -0.4414210139
C     1.7644994659     1.7012380246     1.7975437471
C     1.0102369252     -0.6298667477     2.4383803678
C     0.7543990739     0.8122247741     2.387331845
C     0.2270273672     -2.9509435884     1.8702650593
C     -0.0768357635     -1.6000878657     2.3727664401
C     -0.5706418397     -4.1887305911     -0.1791276113
C     -0.8183423839     -3.6972757405     1.1970932056
C     -1.0544971306     -2.8328163844     -1.9854938831
C     -1.6356120762     -3.7833032648     -1.0202185649
C     -0.7699059554     -0.4001409505     -2.471145793
C     -1.6441250199     -1.5378236835     -2.1877638096
C     -1.3170983687     0.9698408132     -2.321757188
C     0.9536132439     1.8917330868     -2.4674994681
C     -0.4885980105     2.0874328766     -2.4680473577
C     2.391981385     2.8314525322     -0.7487717165
C     1.5426525845     3.0242463361     -1.8850465179
C     1.4510384631     3.0697600884     1.5322830086
C     1.8546668416     3.6468211244     0.2895526051
C     0.1790326829     3.6055208316     1.8755141584
C     -0.6023039816     1.3007302179     2.4413192069
C     -0.8631418543     2.7210174236     2.2091193387
C     -1.4462078164     -1.0901726508     2.2751124291
C     -1.6744550067     0.347877008     2.1938902337
C     -2.1285343266     -3.2561748764     1.2305524805
C     -2.6666225749     -3.3517699641     -0.1747627437
C     -2.4624555703     -1.9605537019     1.7378387164
C     -2.9005400516     -1.2782164463     -1.481597435
C     -3.3359333108     -2.1895383707     -0.4444750434
C     -3.4152398727     -1.4191778443     0.8023901331
C     -2.4986216437     1.1625913057     -1.4759231358
C     -2.7515365556     0.8307979195     1.335272623
C     -3.1403278095     0.0197189213     -0.9776887942
C     -3.3982363076     -0.0869288102     0.4835287347
C     -2.0149681229     3.1410233709     1.4236737227
C     -2.6094736181     2.3249235145     -0.6703982365
C     -2.7267429661     2.1399273097     0.8020688067
C     -0.7709602137     3.393646232     -1.8499164025
C     0.4896970841     3.9942380355     -1.5369297507
C     0.7503717158     4.4648583652     -0.234774343
C     -0.2620918612     4.4785799174     0.7521066937
C     -1.8208089368     3.4910453205     -0.8928741899
C     -1.5518687416     4.0839146547     0.4092330184


