60

 C     1.2859764238     -4.3808025742     -0.5302442792
C     2.4021870472     -3.463247608     -0.5779022588
C     2.6716108599     -3.0109174249     0.7163150568
C     0.7131130301     -4.2462540547     0.7989167001
C     1.5751536032     -3.4922659005     1.6036966205
C     -0.6600492292     -3.8054836162     0.7059009772
C     0.317518926     -3.8340863053     -1.3938447209
C     -0.9383510533     -3.6159983781     -0.7056020322
C     2.1451151819     -2.4379213251     -1.5876999821
C     0.8452549803     -2.7123818987     -2.1388834976
C     2.5447753271     -1.0896651471     -1.3949315429
C     2.8758657629     -1.6421650871     0.9793397093
C     3.0116161312     -0.681560488     -0.0749899861
C     1.1092541355     -2.37327995     2.3405128294
C     2.0279419975     -1.2687926754     2.0877411287
C     -1.1946494223     -2.8648106516     1.6317505021
C     -0.2824668539     -2.0763492115     2.4780945152
C     -2.4015943736     -2.241913709     1.1973002929
C     -1.8320102488     -2.6243480526     -1.1723609546
C     -2.7330227019     -2.1164486992     -0.195358577
C     -0.0089740368     -1.666149497     -2.6023966602
C     -1.4293635962     -1.7321640983     -2.2702781245
C     1.9005812666     -0.0918221063     -2.2323325531
C     0.6255681161     -0.3869941439     -2.8685968762
C     2.2444509486     1.261297495     -1.9789415271
C     2.9815717974     0.7000266886     0.3075264972
C     2.8853910277     1.6473562852     -0.7591082445
C     1.7140634371     0.0726540067     2.3587008977
C     2.4604502454     1.0903201009     1.620826084
C     -0.6312163611     -0.7068813787     2.8399199224
C     0.3944856641     0.3392396107     2.9052228073
C     -2.8397391371     -1.0441327202     1.820757982
C     -1.9697547032     -0.2621182654     2.6105309929
C     -3.4401383658     -0.838759446     -0.3703835195
C     -3.5558996965     -0.1987389082     0.8945690624
C     -2.2002506298     -0.5526102217     -2.4581340576
C     -3.152644856     -0.0628618861     -1.4707679624
C     -0.2256039658     0.7264080085     -3.1829825531
C     -1.6039241686     0.5892078384     -3.0160273895
C     1.3701741736     2.3874440156     -2.3611369065
C     0.105161008     2.0954735912     -2.8262086407
C     2.5354048693     3.0250258418     -0.4990002468
C     1.5350439517     3.458661236     -1.4547883837
C     2.0834192325     2.4535464184     1.8221229034
C     2.178385181     3.433230906     0.771365141
C     -0.0198859521     1.705198109     2.9082534467
C     0.8472366839     2.7054843677     2.4767627624
C     -2.2889749002     1.1258504274     2.2753332666
C     -3.1328953439     1.1417778896     1.0884301549
C     -1.3575530025     2.0976146861     2.4387491212
C     -2.9526332088     1.3991520389     -1.3148814942
C     -2.1197183804     1.8097607134     -2.3573041348
C     -1.062336101     2.7147487392     -2.1855054772
C     -2.7968928459     2.0040974017     -0.0103318159
C     0.4135679405     3.9782003997     -0.7123217519
C     0.8796332869     4.1331073471     0.642004656
C     0.0784149254     3.703012933     1.6749690723
C     -1.2335062173     3.2051118771     1.4991730963
C     -0.9150958402     3.4641015939     -0.9609574978
C     -1.77924167     3.0548146624     0.1694174498


