60

 C     0.3849982195     -4.0208956489     -0.1913531032
C     1.5120328265     -3.6651336394     0.5088375746
C     2.4895082811     -3.0802756186     -0.40983712
C     0.5550078721     -3.4998308281     -1.5650548423
C     1.8160309466     -2.8395859994     -1.6577060549
C     -0.6219194511     -2.8605440495     -1.9291417205
C     -0.9167147806     -3.6679237341     0.2709886567
C     -1.6297249517     -3.1834896913     -0.8955577107
C     -1.088900137     -3.0030435561     1.5337605498
C     1.4228902612     -2.8332147318     1.6877391868
C     0.1293699674     -2.5091283808     2.2150253987
C     3.10581859     -2.0198893705     0.2659949936
C     2.4579283911     -1.8388178621     1.5848485583
C     3.4817744764     -0.9044385006     -0.4694997728
C     1.8907028762     -1.5540274294     -2.2843699538
C     2.9503274554     -0.72232138     -1.7952747481
C     -0.619530934     -1.5542644089     -2.5573849098
C     0.6617333097     -0.8906405684     -2.7514787249
C     -1.8559915545     -0.7717039465     -2.4548606114
C     -2.7374029578     -2.3913520071     -0.7434904806
C     -2.9077653515     -1.1992811033     -1.5765122016
C     -2.2923274648     -2.2327443912     1.6673705715
C     -3.1725168982     -2.0870737633     0.5801360036
C     -2.3205137788     -0.9423699214     2.3736521862
C     0.0570191408     -1.2686833023     2.9097188057
C     -1.1769993618     -0.4890699644     2.9712096196
C     2.3166915061     -0.5395411586     2.1318057707
C     1.1317301022     -0.3302005452     2.9000178905
C     3.5657884022     0.4152181194     0.166574706
C     2.9518885885     0.6305536818     1.4652858111
C     2.9610377863     0.6847022327     -2.0288409965
C     3.4623854789     1.3790833831     -0.8428643897
C     0.6727554376     0.5862659621     -2.8892385943
C     1.8463392053     1.352849546     -2.4940001169
C     -1.799228593     0.6348497256     -2.7277811118
C     -0.5300374267     1.2983449476     -2.8832811124
C     -2.6579820683     1.5469524739     -2.0633311652
C     -3.6198822708     -0.2366590279     -0.7697723652
C     -3.6927679396     -0.7320320737     0.5591594767
C     -3.1618110078     0.0063007635     1.6335639754
C     -3.3924477676     1.1443272184     -0.9335387094
C     -2.7627618909     1.385723847     1.4649308535
C     -3.024788831     1.9858889546     0.1982082853
C     -0.8516438925     0.9298365401     2.9848998335
C     0.5798038322     1.008048656     3.0607109484
C     -1.6174838864     1.881581945     2.2476736929
C     2.4388314819     1.9252207409     1.7069710381
C     1.2566106787     2.1126687892     2.5586250286
C     2.7153916711     2.5671543161     -0.6714451915
C     1.7294400566     2.6265015989     -1.7236716173
C     2.3482434882     2.931084472     0.6419119724
C     -0.6301100317     2.6400677679     -2.2391998725
C     -1.9160986912     2.7454171634     -1.7344587683
C     -2.1516269255     3.0350570514     -0.3303620944
C     0.4721522874     3.2160667082     -1.5090764855
C     -0.8974789409     3.0341517583     1.7738772594
C     0.4778901517     3.1720335879     2.0286439099
C     1.1429687245     3.6466820385     0.8188557953
C     -1.1215676721     3.5534703828     0.4173455029
C     0.1829336641     3.7920721308     -0.2059593105


