60

 C     -0.0849629492     5.1484857971     -0.3884062165
C     -1.3502503348     4.7849418377     -0.0793586701
C     -1.3696708121     4.0788595638     1.2273098065
C     0.7954473246     4.698840626     0.7105434502
C     -0.0213363853     3.9258887451     1.6938389067
C     1.8505926137     4.0622448412     0.1044848641
C     0.3056426345     4.4029869098     -1.6375018179
C     1.5434553931     3.8567160404     -1.3665680076
C     -1.8378294599     3.8295044674     -1.0846838477
C     -0.7676922494     3.5098306399     -2.0197410297
C     -2.1441998774     2.9353915655     1.0594325994
C     -2.465312356     2.7996888276     -0.4051879635
C     -1.8348911282     1.7437456152     1.7705450493
C     0.4265228234     2.6400994517     2.1610256566
C     -0.5439755908     1.5470308026     2.3660639726
C     2.3596972636     2.8404297031     0.596450302
C     1.7635618373     2.2041701259     1.750451532
C     1.8496668817     2.5088146853     -1.6598078748
C     2.6288429847     1.9938873349     -0.5361040764
C     -0.4959049443     2.114367162     -2.2932272049
C     0.877866694     1.6216609301     -2.2267014488
C     -2.4778467538     1.5015952475     -0.9613077935
C     -1.5061246899     1.117531123     -1.9574985884
C     -2.5395831013     0.6039399216     1.3146741411
C     -2.9327801222     0.5063865521     -0.0667317954
C     -2.2751390844     -0.7214604118     1.7624678641
C     -0.1236339622     0.1344471933     2.5900131388
C     -1.0315858418     -1.031692653     2.35567195
C     2.1195599539     0.8632586357     1.921639451
C     1.2404180143     -0.1537756568     2.5165558895
C     2.84796118     0.6384492983     -0.3887869741
C     2.8853302998     0.1586040821     0.9495309172
C     1.1494780736     0.1921286571     -2.1473666541
C     2.3250092717     -0.2611828599     -1.4233918473
C     -1.2504497706     -0.3079355789     -2.1214373143
C     0.0996492602     -0.784292078     -2.3650593285
C     -2.9767052402     -0.8473075464     -0.4391566438
C     -2.8439399574     -1.6143711035     0.7731253835
C     -2.2124868772     -1.2772511187     -1.5845253345
C     -2.4617153782     -2.922391641     0.7247204968
C     -0.5207110346     -2.4238602069     2.1998941122
C     -1.3673258212     -3.3930547421     1.5510150509
C     1.7360270736     -1.4680245677     2.1698475374
C     2.7607457454     -1.243782387     1.1877267282
C     0.9268160565     -2.6388957688     2.1022111886
C     2.5310934957     -1.6245302831     -1.2249935281
C     2.9295604532     -2.125071183     0.1187889284
C     0.4084152549     -2.2252926648     -2.3137327769
C     1.7205272529     -2.6251851509     -1.8395157115
C     -1.9356018498     -2.6580355088     -1.6674883747
C     -2.3382835916     -3.5403162227     -0.5791634525
C     -0.6599984209     -3.1641306223     -2.1293518448
C     -0.8254806231     -4.5288790386     0.8266947938
C     -1.4888196922     -4.6468168423     -0.4948958869
C     -0.4436984963     -4.4438396091     -1.4520853482
C     1.436723422     -3.7226281369     1.275555021
C     2.4032600504     -3.4012679452     0.2530705113
C     1.8570103063     -3.8263540233     -1.0410745867
C     0.5463961973     -4.6643311593     0.6695794726
C     0.8026586837     -4.6779696721     -0.8080766733


