60

 C     -2.9541059267     -2.8577963016     1.1611174546
C     -2.3843523519     -3.3944168346     -0.0526109307
C     -1.0836035238     -3.9189441053     0.2422664096
C     -1.8943594833     -2.7298876373     2.0615609523
C     -0.7263945755     -3.4363298466     1.5797938819
C     -1.8032165172     -1.3451116505     2.5234053491
C     -3.4250866801     -1.5259458568     0.8880348706
C     -2.8435851553     -0.6118963552     1.8261861014
C     -2.502144786     -2.4038786177     -1.0657132249
C     -3.2188358901     -1.2495561215     -0.4823143629
C     -1.4436427164     -2.1617445434     -2.0091892142
C     -0.1222967903     -3.8800857035     -0.7681691457
C     -0.3127080162     -3.0292314362     -1.9487676853
C     1.2282202802     -3.7580985466     -0.3799414426
C     0.5515781001     -2.9020253835     1.8366862975
C     1.5976444912     -3.2602254921     0.9029028541
C     -0.558359014     -0.7483213542     2.7525001735
C     0.6557405221     -1.5815463486     2.5366381335
C     -0.4927032761     0.7277933939     2.6972446924
C     -2.6722884388     0.73022524     1.4778525337
C     -1.6291810632     1.4688675433     2.1782300561
C     -2.9795205716     0.0817532427     -0.902094304
C     -3.0288640675     1.1227701043     0.1191299641
C     -1.2816309658     -0.8027931905     -2.5446691341
C     -2.1450055162     0.2987177298     -2.0758593995
C     -0.0051356296     -0.4343652469     -3.0331183619
C     1.0025732307     -2.557318886     -2.3442669645
C     1.978919927     -3.0538673302     -1.4040204991
C     1.1535587812     -1.2721201702     -2.8343223667
C     2.7138119577     -2.391881482     0.6768466575
C     2.8777187247     -2.1829411068     -0.7933558494
C     1.8712221216     -0.9090193346     2.4527499403
C     2.9288501586     -1.3301832193     1.5177708846
C     0.81226862     1.3628276237     2.6832025808
C     1.9560540885     0.5453022991     2.5622002012
C     0.9426461123     2.7154088085     2.1492909018
C     -1.4732969615     2.8475044293     1.8049207178
C     -0.1748170291     3.4542174601     1.8440976491
C     -2.7427687519     2.4552756167     -0.2710738517
C     -2.1133329973     3.3426048262     0.6397647164
C     -1.761564286     1.6370443463     -2.375409876
C     -2.2042609404     2.7141404316     -1.5694573539
C     0.4673121878     0.9336927925     -3.0059286265
C     -0.402488237     1.9654695311     -2.7661081965
C     2.2427226827     -0.4168753361     -2.380363483
C     3.0868717979     -0.8442276491     -1.3130170443
C     1.8178312141     0.9537002221     -2.5013656575
C     3.5445124286     -0.1454910102     1.0126600851
C     3.0357717976     0.9625997664     1.7197316307
C     3.5011737516     0.1691665719     -0.3955955501
C     1.9306527     2.9952236585     1.0749692198
C     2.1958673043     1.9730640942     -1.5685682657
C     2.8963301498     2.06865074     0.8115281477
C     3.0852400898     1.5501975238     -0.5358977948
C     0.0430856995     4.192861362     0.5664040923
C     -1.1438173489     4.1711919166     -0.1346418641
C     -1.1537253453     3.7169768766     -1.4692006487
C     0.0269939559     3.1627939267     -2.0506543304
C     1.2561070879     3.697845264     -0.0008372274
C     1.2758125891     3.1182382549     -1.3231544937


