60

 C     1.911089315     -3.4925939621     -1.6193529256
C     1.5543907536     -3.8296735181     -0.2956442432
C     0.1247365768     -3.8728700025     -0.1781218978
C     0.7158066163     -3.1378207446     -2.3155286549
C     -0.4004209255     -3.4041888888     -1.4525361193
C     0.8452066421     -1.7757039033     -2.7489609082
C     2.719663894     -2.3035620167     -1.5262373219
C     2.148278885     -1.2693856574     -2.3227583447
C     2.305336006     -2.9845467995     0.6313825293
C     3.0578391437     -2.0111130228     -0.1683115239
C     1.6858353384     -2.5581199308     1.7884889589
C     -0.5187378805     -3.4889160165     1.0360028384
C     0.2965894569     -2.8875686697     2.069864299
C     -1.8687762393     -3.0385743119     0.9273664036
C     -1.5710164036     -2.5809778914     -1.5149396949
C     -2.3950042143     -2.5722368561     -0.3702678234
C     -0.2611782714     -0.8883102219     -2.845278003
C     -1.5523881601     -1.3695567214     -2.371751846
C     0.0476178432     0.5427969096     -2.8902203738
C     2.3533734552     0.081270491     -1.9956873146
C     1.3545895927     1.0370739983     -2.4826999853
C     3.2179992176     -0.6634583864     0.2332838592
C     3.11743312     0.3768310981     -0.7904836549
C     1.9603742473     -1.2205766707     2.2982227333
C     2.8030853362     -0.3063527856     1.5970137131
C     -0.2161130013     -1.7998893151     2.84808862
C     0.7975005887     -0.7524752817     2.9648081363
C     -2.3887433319     -2.1460773597     1.8880616509
C     -1.5538931522     -1.4257665164     2.766914321
C     -3.3250988842     -1.471573069     -0.1217395484
C     -3.2812599399     -1.1863077515     1.2553851864
C     -2.5838765484     -0.4111159913     -2.1948670981
C     -3.4094845641     -0.4025102559     -1.0147514504
C     -1.05537052     1.4524734768     -2.8056313769
C     -2.3253009333     0.9509669516     -2.5067333356
C     -0.946336411     2.7680181896     -2.1522396842
C     1.4645303431     2.3967079588     -2.0464756204
C     0.2789268971     3.2339579457     -1.7898599869
C     3.1539859028     1.7330770826     -0.3605708509
C     2.4116527323     2.7397748254     -1.0746868544
C     2.6337366398     1.0559324587     1.9388608314
C     3.0128900682     2.0597741133     1.0047293972
C     0.4401276663     0.6338767743     3.0023130466
C     1.4474960152     1.5361374154     2.6120230096
C     -1.9418614201     0.0080742603     2.696267212
C     -3.0380979593     0.1208370086     1.7572668705
C     -0.9782880655     1.0215855183     2.8064529834
C     -3.4880019676     0.9690328536     -0.5041461509
C     -2.9465143501     1.8109662266     -1.5047540492
C     -2.09207239     2.9010545254     -1.2377114775
C     -3.1516203381     1.243107744     0.8729135506
C     -1.2604914034     2.2688848283     2.1261731207
C     -1.832678412     3.2583209617     0.0980865683
C     -2.3083625327     2.3656453701     1.1497254362
C     0.4771908074     3.9188010701     -0.4992081398
C     1.8223012432     3.7007138859     -0.1279991817
C     2.154213381     3.2348028514     1.1554390295
C     1.127771905     2.8691009175     2.0666555019
C     -0.5439158354     3.7763479933     0.4755352564
C     -0.2066655748     3.1858766144     1.7628301772


