60

 C     -0.0920212132     -4.6602443195     0.3512994202
C     -1.2097422173     -4.0273616641     1.0476780193
C     -2.1189078747     -3.584636898     0.1119116229
C     -0.2184890576     -4.2914462488     -1.0561418725
C     -1.4979285008     -3.7501024716     -1.241939408
C     0.9343707672     -3.5111467566     -1.4719583115
C     1.045631272     -4.0055241543     0.8144109003
C     1.8084762072     -3.4788421563     -0.3080686004
C     -0.6929185189     -3.0271745001     1.9927638913
C     0.7305557952     -3.0781654277     1.9003081282
C     -1.3487878896     -1.7732471042     2.1935270671
C     -2.6831940234     -2.2812880011     0.1843034848
C     -2.449637055     -1.4100378444     1.303478532
C     -1.6768378308     -2.5408117255     -1.9208789115
C     -2.5828125971     -1.7040644289     -1.1164403334
C     0.7914742382     -2.3175437542     -2.248057489
C     -0.5715356479     -1.8801708721     -2.561360603
C     1.828428607     -1.2687278513     -2.1472248154
C     2.6091542002     -2.3939127173     -0.0808859646
C     2.7765088739     -1.3834158087     -1.0929515838
C     1.5273320918     -1.9063855489     2.1062746442
C     2.6200028213     -1.7052128036     1.2133326944
C     -0.5601755072     -0.6944267129     2.7779984215
C     0.9018497338     -0.7417885637     2.7121624257
C     -1.1895766277     0.5612119583     2.9004593264
C     -2.8314969809     -0.0272930194     1.1484588484
C     -2.3996657357     0.8658435756     2.172319842
C     -2.7089188531     -0.3140012985     -1.317839127
C     -3.0655048335     0.5282104538     -0.1898514041
C     -0.7909166084     -0.5196071648     -2.875204868
C     -1.9526293268     0.2155625066     -2.3947069144
C     1.5956476051     0.084418566     -2.6687232181
C     0.2678508255     0.4193238279     -3.0912517365
C     2.3976664857     1.1806465342     -2.196577493
C     3.3343692401     -0.2154842998     -0.4417744516
C     3.1564453531     -0.4030339984     0.9933176938
C     3.2024929116     1.0321794242     -0.9968307196
C     1.6031860254     0.4996587297     2.6468390586
C     2.717391561     0.6683114113     1.7659959631
C     -0.4385775888     1.8155401758     2.9863707223
C     0.9309075414     1.7789549089     2.7302070071
C     -2.4472575312     2.2832570999     1.9854676961
C     -1.2159356222     2.8689357425     2.4473468969
C     -2.9428845455     1.9397725054     -0.383826426
C     -2.7174372319     2.8104426703     0.7166613856
C     -1.6558589012     1.6090905548     -2.458793763
C     -0.2807014496     1.7526218495     -2.9261639262
C     -2.1688959178     2.4676108838     -1.4999489698
C     1.8593088129     2.4947844975     -2.1369800362
C     0.4947047833     2.7922925404     -2.4323757295
C     2.976501876     2.2099109734     -0.1399049189
C     2.65337096     2.0193693925     1.2028946404
C     1.5339853075     2.7129361708     1.7976230348
C     2.1951546942     3.1317880173     -0.8936065073
C     -0.6883950039     3.7146375692     1.4027512528
C     -1.6890653818     3.785139186     0.3789561554
C     -1.3408561098     3.5822816296     -0.9800683771
C     -0.0114559715     3.6813857567     -1.3858831132
C     0.7084213435     3.6193332409     1.0363146129
C     1.0378284211     3.7696455618     -0.3652138963


