60

 C     -1.1019055241     -3.7302814108     0.685312067
C     -1.1019055241     -3.7302814108     -0.685312067
C     0.2848923697     -3.7935239894     -1.1713891798
C     0.2848923697     -3.7935239894     1.1713891798
C     1.1415198971     -3.7056188211     0.
C     0.3957014337     -2.8741890705     2.2003389964
C     -1.8268036294     -2.7387839608     1.4296744159
C     -0.9524706871     -2.3019466838     2.4689625845
C     -2.6775367377     -1.8031842463     0.7444749179
C     -1.8268036294     -2.7387839608     -1.4296744159
C     -2.6775367377     -1.8031842463     -0.7444749179
C     0.3957014337     -2.8741890705     -2.2003389964
C     -0.9524706871     -2.3019466838     -2.4689625845
C     1.5654706179     -2.0063291041     -2.2993453474
C     2.2097110783     -2.8168565223     0.
C     2.4724420684     -2.0000898435     -1.1714392523
C     1.5654706179     -2.0063291041     2.2993453474
C     2.4724420684     -2.0000898435     1.1714392523
C     1.4386934463     -0.8330764871     3.0498318357
C     -1.0852840556     -1.0332996253     3.0691162064
C     0.1178638133     -0.3918291309     3.5551669968
C     -2.8978022211     -0.5743974073     1.4165541249
C     -2.149966125     -0.2015316641     2.5971913703
C     -3.2083548257     0.6469260575     0.6934998536
C     -2.8978022211     -0.5743974073     -1.4165541249
C     -3.2083548257     0.6469260575     -0.6934998536
C     -1.0852840556     -1.0332996253     -3.0691162064
C     -2.149966125     -0.2015316641     -2.5971913703
C     1.4386934463     -0.8330764871     -3.0498318357
C     0.1178638133     -0.3918291309     -3.5551669968
C     2.2044727506     0.3563066384     -2.7235346067
C     3.0575910729     -0.776995253     -0.7275208438
C     3.0575910729     -0.776995253     0.7275208438
C     2.9090108403     0.4337055716     -1.4729248481
C     2.2044727506     0.3563066384     2.7235346067
C     2.9090108403     0.4337055716     1.4729248481
C     0.1578334898     0.9927022642     3.6577465917
C     1.4501735493     1.4694907079     3.1663380551
C     -2.0332185014     1.2482036683     2.6239303774
C     -2.6520014103     1.7671796655     1.4215403756
C     -0.8686767459     1.8378622499     3.1181166605
C     -2.0618443244     2.8252432204     0.7229996048
C     -2.6520014103     1.7671796655     -1.4215403756
C     -2.0332185014     1.2482036683     -2.6239303774
C     -2.0618443244     2.8252432204     -0.7229996048
C     0.1578334898     0.9927022642     -3.6577465917
C     1.4501735493     1.4694907079     -3.1663380551
C     -0.8686767459     1.8378622499     -3.1181166605
C     -0.784785129     3.3623655653     -1.1819559205
C     1.2430868422     2.6032628614     -2.3641065408
C     -0.2022986563     2.8913042499     -2.3482203327
C     2.8269803453     1.6602423542     -0.7348523662
C     2.8269803453     1.6602423542     0.7348523662
C     1.9926400823     2.7353197801     -1.1762348363
C     1.2430868422     2.6032628614     2.3641065408
C     -0.2022986563     2.8913042499     2.3482203327
C     -0.784785129     3.3623655653     1.1819559205
C     0.0314046072     3.641675446     0.
C     1.9926400823     2.7353197801     1.1762348363
C     1.389556613     3.3394859456     0.


