60

 C     1.1334515463     4.4329028783     -0.8232849103
C     -0.2239985785     4.5100784628     -0.3559962771
C     -0.2510455188     4.2549423971     1.0382127935
C     1.9102879218     3.8849948132     0.2597511374
C     1.1011080997     3.8227901559     1.4190638958
C     2.5290509934     2.6545746788     -0.1653976895
C     1.1345856797     3.42112382     -1.8302743184
C     2.096082091     2.3976680296     -1.5247169217
C     -1.0661659785     3.6827406051     -1.2111461037
C     -0.1874887675     2.9904561091     -2.1691687676
C     -2.112163771     2.9649748683     -0.6416026758
C     -1.1716124225     3.3269100753     1.5973031445
C     -2.205992503     2.8165174402     0.8000058784
C     0.9946201182     2.6274642138     2.1739016564
C     -0.4129480792     2.3473844358     2.3864360529
C     2.6434600106     1.5347138177     0.7006453858
C     1.8506965419     1.5059158584     1.9190030365
C     3.0202150256     0.2845062688     0.0752978964
C     1.9307688121     1.084433159     -2.0059548497
C     2.7176702855     0.0615650926     -1.3333572034
C     -0.4242253511     1.6518060021     -2.565978985
C     0.7005700409     0.7173702133     -2.6777092932
C     -2.5057910452     1.6943698185     -1.2111570356
C     -1.7261017065     1.0740446637     -2.2401230815
C     -2.7297577596     1.5024519898     1.0647290458
C     -3.0937148235     0.8804468492     -0.176182476
C     -0.8970825754     1.0471330285     2.6568544886
C     -2.200143082     0.6765672249     2.0961473869
C     1.4562614115     0.2251411925     2.4733724813
C     0.0845273037     0.0011497834     2.9224699563
C     3.0880479418     -0.8451391863     0.9345634437
C     2.2279029195     -0.8988180942     2.0940566759
C     3.1525365416     -2.155788609     0.3818637459
C     2.5930525408     -1.2668638039     -1.8078269789
C     2.9460985007     -2.3664054873     -0.9600244988
C     0.439563733     -0.694218285     -2.9075641542
C     1.4264687698     -1.6511379333     -2.5565735238
C     -1.9460599041     -0.3050617802     -2.4561301008
C     -0.9288781128     -1.1568833417     -2.9416817549
C     -3.2464922934     -0.5318138959     -0.3103831125
C     -2.8459295271     -1.0990241414     -1.5723388435
C     -2.5578478554     -0.7015194347     2.0494865197
C     -3.1330332277     -1.3305016996     0.8476229877
C     -0.3881271746     -1.3420035849     3.0245672294
C     -1.7319804066     -1.6409363987     2.6683459192
C     1.7085553561     -2.2673694905     2.2030299415
C     2.248308906     -3.0478209132     1.1382242469
C     0.3995878194     -2.4696479111     2.5920421127
C     1.9181886928     -3.4125669041     -1.0857626586
C     1.0336523228     -3.0026621804     -2.0630407215
C     1.4433198327     -3.7800914872     0.2472739668
C     -1.2713740202     -2.4972238777     -2.5129639654
C     -2.4374171243     -2.4198494633     -1.6437470513
C     -0.3476677332     -3.3309864688     -1.9130318492
C     -2.6162354102     -2.6916808628     0.7695710468
C     -1.7565713393     -2.879073447     1.8957686257
C     -0.456355091     -3.3799643299     1.785166507
C     0.0167846932     -3.8967711952     0.5105773852
C     -2.1975572576     -3.2178500075     -0.4636221293
C     -0.875666112     -3.7974635311     -0.5986125593


