60

 C     -0.2361679     4.7212733323     -0.399398831
C     0.1830842646     4.3549268155     -1.7295512884
C     -0.7878008127     3.3796251061     -2.2300233603
C     -1.3957801025     3.9877403161     -0.1027233937
C     -1.7974647042     3.159528568     -1.2480156253
C     -1.2991990384     3.3504629642     1.2005031168
C     0.743486419     4.2205723868     0.5508899318
C     0.0800801651     3.4963593057     1.6249622747
C     1.3634857692     3.6116343724     -1.587652326
C     1.7538801509     3.5426410368     -0.1672626201
C     -0.1195706202     2.2258286722     -2.7357964419
C     1.2711124671     2.351465789     -2.3096986698
C     -0.7284450922     0.9688692051     -2.6783037622
C     -2.3395715698     1.8669008232     -1.0372246604
C     -1.9723139089     0.7986926484     -1.9449310407
C     -2.005836439     2.1716517722     1.4571435382
C     -2.7114476843     1.4813169871     0.3450137137
C     -1.4820911456     1.3504162909     2.5102760154
C     0.7321456978     2.4264858247     2.2531300082
C     -0.1215620547     1.4495966728     2.8765099711
C     2.3471756508     2.3524804845     0.343148
C     2.0046434863     1.9398225416     1.7022958837
C     1.9808574168     1.2304251488     -1.8859103056
C     2.72950598     1.3096842631     -0.6160662087
C     0.161666401     -0.1767786648     -2.816264695
C     1.5253768487     -0.0790954561     -2.3669886611
C     -0.4607778147     -1.4521977606     -2.8887615884
C     -2.4584818929     -0.5489212272     -1.7036296778
C     -1.8024066628     -1.6485875548     -2.3102734698
C     -3.1606491005     0.1917699174     0.5679567532
C     -3.1929009827     -0.8069264914     -0.4968754667
C     -1.900042401     -0.0302192166     2.6743344007
C     -2.8623280846     -0.5409823301     1.8148002297
C     0.3265766874     0.1006151564     3.2060511422
C     -0.777274073     -0.8336616754     3.0635458907
C     2.4609288585     0.6763520088     2.1445563112
C     1.6090008329     -0.2733819635     2.8997066531
C     3.2356509748     0.1099151393     -0.1095510728
C     3.2358456556     -0.1151990001     1.2928685152
C     2.1989530659     -1.2952228171     -1.9121576446
C     3.0168416856     -1.1854657554     -0.7593695076
C     0.2833332484     -2.6246343539     -2.7475936426
C     1.5794087899     -2.577838083     -2.1547049596
C     -1.8085852079     -2.9708678784     -1.7193160751
C     -0.5526190432     -3.5897861972     -2.0206280798
C     -3.1197075943     -2.0862420259     0.1003169763
C     -2.807167389     -1.9116072986     1.5084141085
C     -2.3446951277     -3.146100367     -0.4216858746
C     -0.586699718     -2.1583273743     2.5490405021
C     -1.6884094488     -2.7273902411     1.8214130779
C     -1.4654546083     -3.6051590128     0.6675801662
C     1.8689204206     -1.6277943555     2.4342116357
C     2.9380463654     -1.5197809834     1.5187651115
C     2.9277210601     -2.1914897826     0.2838279495
C     0.7863664735     -2.5689155507     2.1904224717
C     1.5804020222     -3.5959250121     -1.1360916831
C     0.2250994307     -4.1318982539     -1.0112938673
C     -0.1733886344     -4.0284574885     0.3766919872
C     2.0455212622     -3.287778316     0.1455139476
C     0.9637211054     -3.4904206614     1.1238541161


