60

 C     0.0867283645     4.4087758865     -0.4551001607
C     0.9385447782     4.2675362734     0.6115325808
C     0.16632256     3.6387501165     1.7316532739
C     -1.2874355702     4.0996077321     0.0321463228
C     -1.1762557909     3.4555958747     1.334229744
C     -1.9520998664     3.4561277943     -0.9631179274
C     0.3021279828     3.6246950476     -1.6658554137
C     -0.9861235948     3.1864989143     -2.0652270458
C     1.4042462878     2.6862158759     -1.7464359438
C     2.1548787446     3.5745766342     0.4795552146
C     2.3832450806     2.7708980832     -0.6892871916
C     0.9723291565     2.5947973698     2.2679364038
C     2.2296218873     2.657775286     1.5989778158
C     0.3766614897     1.3241119043     2.5962523079
C     -1.8181777751     2.1956539804     1.581238741
C     -1.0714762273     1.2222060473     2.4130069735
C     -2.7202173926     2.2740218393     -0.7260933176
C     -2.7332078768     1.6608146067     0.5774211564
C     -1.2423501587     1.8993071232     -2.5228544248
C     -2.4489465485     1.4179132587     -1.836940753
C     1.1704616873     1.356659341     -2.36854389
C     -0.1754260381     0.9654848919     -2.7573624261
C     2.1366931577     0.2762633505     -2.1563830644
C     3.0040460212     1.543207239     -0.2355817046
C     2.826556607     1.4512145943     1.1922089708
C     3.0402509403     0.374685435     -1.006288445
C     1.1917275918     0.1218375052     2.5389643395
C     2.4481516828     0.2178951691     1.7937777105
C     0.5749835081     -1.1913538571     2.6988214629
C     -1.6246942878     -0.0388299537     2.6071592541
C     -0.8323387998     -1.19121302     2.9377369812
C     -3.1349178771     0.2567978023     0.6411507882
C     -2.7944326751     -0.4884918088     1.8240964936
C     -2.7209001737     0.063056493     -1.7672878781
C     -3.2718329544     -0.504779899     -0.5510058177
C     -0.5604161393     -0.4495547026     -2.8369423908
C     -1.8609020698     -0.8743856085     -2.3672698525
C     1.8005068345     -1.0410650821     -2.5802762624
C     0.4437640089     -1.4211330495     -2.831348114
C     2.4255255862     -2.1970947751     -1.9856067361
C     3.3552709276     -0.8017589183     -0.2527935589
C     2.9397772436     -0.9141324511     1.1182679616
C     3.159507765     -2.0908593196     -0.8275157709
C     1.1732386217     -2.3983524371     2.0974032006
C     2.3798718512     -2.2495938844     1.3288322807
C     2.6233216612     -3.0179750386     0.1763301799
C     0.3143646859     -3.4735851102     1.6689003777
C     -1.626081201     -2.3353925812     2.5940415547
C     -2.8084507989     -1.8759181251     1.8324025031
C     -1.0776353206     -3.4162890466     1.9581990917
C     -3.0036893191     -1.9212894806     -0.5923436253
C     -2.0695903932     -2.154566384     -1.675247957
C     -2.8675929428     -2.6407203564     0.6097766105
C     -1.8425482032     -3.6289348269     0.6966075424
C     0.2096086085     -2.7779208522     -2.265531807
C     1.4229365022     -3.2594592704     -1.7948724083
C     1.5610499706     -3.7625645833     -0.4371570234
C     0.4199779504     -3.9925825645     0.3096379108
C     -1.0201147908     -3.0906895742     -1.5654804308
C     -0.9084452595     -3.8424951085     -0.3225148075


