60

 C     4.5829564904     0.7043585967     -0.737081312
C     4.2751069341     1.3952447726     0.4396210411
C     3.3337658174     2.4571724293     0.0988181864
C     3.5929470822     1.147668982     -1.7460941201
C     2.8520471424     2.2377624832     -1.2435518608
C     2.9015290953     0.     -2.2378627037
C     4.5829564904     -0.7043585967     -0.737081312
C     3.5929470822     -1.147668982     -1.7460941201
C     4.2751069341     -1.3952447726     0.4396210411
C     3.7182492589     0.7016442907     1.585213339
C     3.7182492589     -0.7016442907     1.585213339
C     2.3924769946     2.5763538942     1.1285886771
C     2.4932639579     1.3971456467     1.9889662849
C     1.1482533198     3.062629188     0.8003531173
C     1.4495157749     2.3468440979     -1.5296066447
C     0.7122288703     3.0847050289     -0.5771518555
C     1.44040082     0.     -2.3842315941
C     0.7273427623     1.2483861025     -2.1951147072
C     0.7273427623     -1.2483861025     -2.1951147072
C     2.8520471424     -2.2377624832     -1.2435518608
C     3.3337658174     -2.4571724293     0.0988181864
C     1.4495157749     -2.3468440979     -1.5296066447
C     2.4932639579     -1.3971456467     1.9889662849
C     2.3924769946     -2.5763538942     1.1285886771
C     1.296178235     0.7357765069     2.3820127924
C     1.296178235     -0.7357765069     2.3820127924
C     0.     2.6892563401     1.5695167918
C     0.     1.4468287966     2.2626316127
C     -0.7122288703     3.0847050289     -0.5771518555
C     -1.1482533198     3.062629188     0.8003531173
C     -0.7273427623     1.2483861025     -2.1951147072
C     -1.4495157749     2.3468440979     -1.5296066447
C     -0.7273427623     -1.2483861025     -2.1951147072
C     -1.44040082     0.     -2.3842315941
C     -1.4495157749     -2.3468440979     -1.5296066447
C     0.7122288703     -3.0847050289     -0.5771518555
C     1.1482533198     -3.062629188     0.8003531173
C     -0.7122288703     -3.0847050289     -0.5771518555
C     0.     -1.4468287966     2.2626316127
C     0.     -2.6892563401     1.5695167918
C     -1.1482533198     -3.062629188     0.8003531173
C     -1.296178235     0.7357765069     2.3820127924
C     -1.296178235     -0.7357765069     2.3820127924
C     -2.3924769946     2.5763538942     1.1285886771
C     -2.4932639579     1.3971456467     1.9889662849
C     -2.8520471424     2.2377624832     -1.2435518608
C     -3.3337658174     2.4571724293     0.0988181864
C     -2.9015290953     0.     -2.2378627037
C     -3.5929470822     1.147668982     -1.7460941201
C     -2.8520471424     -2.2377624832     -1.2435518608
C     -3.5929470822     -1.147668982     -1.7460941201
C     -2.3924769946     -2.5763538942     1.1285886771
C     -2.4932639579     -1.3971456467     1.9889662849
C     -3.3337658174     -2.4571724293     0.0988181864
C     -3.7182492589     0.7016442907     1.585213339
C     -4.2751069341     1.3952447726     0.4396210411
C     -4.5829564904     0.7043585967     -0.737081312
C     -4.5829564904     -0.7043585967     -0.737081312
C     -3.7182492589     -0.7016442907     1.585213339
C     -4.2751069341     -1.3952447726     0.4396210411


