60

 C     0.682749828     -4.7412336355     0.5712170956
C     -0.7116506192     -4.5352860618     0.885402033
C     -1.3955877695     -4.4239146508     -0.3520526706
C     0.8647746798     -4.3952363044     -0.8483419594
C     -0.3763399291     -4.2648123651     -1.4465635073
C     1.8264092561     -3.3155179732     -0.9576116627
C     1.446299529     -3.8375997769     1.3032210048
C     2.3208514624     -3.1149816358     0.3973973941
C     -0.793991708     -3.4194713286     1.8045643467
C     0.5761126656     -3.0254924644     2.1415150048
C     -1.7483425014     -2.3694347618     1.616868352
C     -2.3499412513     -3.4397023722     -0.5323794723
C     -2.6039986561     -2.4489669323     0.4489865079
C     -0.7011082577     -3.0728463403     -2.1846970377
C     -2.0114727008     -2.6932211594     -1.7769593787
C     1.5853777949     -2.1632072413     -1.7773732522
C     0.2611188021     -2.0038219184     -2.3787219096
C     2.3456379666     -0.944469071     -1.4755886286
C     2.7348836175     -1.8671722822     0.7727151934
C     3.0057879916     -0.8748178418     -0.2266925833
C     0.9108911718     -1.6829562641     2.4285176726
C     2.1654048504     -1.1798789266     1.9258207249
C     -1.448801932     -1.0294304121     2.1191801398
C     -0.1331846824     -0.6823123423     2.5835250401
C     -2.3048825324     0.0754990056     1.6929605537
C     -2.8626266969     -1.2071056003     -0.2773517521
C     -2.3942926389     -1.3725087823     -1.6450954193
C     -2.8429611597     0.0259685522     0.3321046844
C     -0.2463232048     -0.6458483567     -2.577023401
C     -1.599719245     -0.329438175     -2.1929057036
C     2.0141613658     0.3240902614     -2.1172320407
C     0.6798768664     0.4746823207     -2.6890529323
C     2.637621865     1.507815702     -1.6166565517
C     3.1029979933     0.3736666298     0.4709142563
C     2.4055108545     0.2045844183     1.7524701868
C     3.041438022     1.5415456851     -0.2095738199
C     0.244195186     0.739766721     2.7116850329
C     1.5389111855     1.2208163921     2.2153641491
C     -2.0875081354     1.3292912049     2.2371529862
C     -0.7965845352     1.6733014839     2.7943661495
C     -2.5234889344     2.5116238011     1.5160183954
C     -2.7033577662     1.2017273325     -0.5313893013
C     -1.9783591376     1.0083460922     -1.7991417441
C     -2.6980390256     2.4628180677     0.0800046739
C     0.1237396098     1.7833834571     -2.8165969869
C     -1.2064503153     2.0650399298     -2.2898117236
C     2.127915748     2.7974957532     -1.8927771306
C     0.9035478641     2.944347281     -2.5226512336
C     2.4580948025     2.7193366604     0.4167876498
C     1.6556664749     2.5620839439     1.6201753799
C     2.0422848032     3.565306442     -0.6258400095
C     -0.5834021993     3.0718385147     2.4767415338
C     -1.7512807132     3.6387100209     1.8698547621
C     0.5864008503     3.4913656682     1.7735453982
C     -1.9349476126     3.5824027337     -0.4620208066
C     -1.2071298648     3.3875378982     -1.6612233466
C     0.0923216712     3.9228651915     -1.7811290828
C     0.8076861528     4.2835618271     -0.5884517954
C     -1.3123089116     4.2606990568     0.6460158228
C     0.1194119053     4.3291667274     0.6478147195


