60

 C     -1.2065936617     -4.7467352746     0.2368150981
C     0.1335894946     -4.9265488924     0.0447849082
C     0.894773552     -4.3014546519     1.1189114098
C     -1.3596377817     -3.9027745359     1.421967405
C     -0.0375548934     -3.6094966927     1.9831890086
C     -2.1084062668     -2.8007670439     1.0244840201
C     -1.7240720911     -4.0028666576     -0.9358063557
C     -2.3739263915     -2.8705671752     -0.4529377254
C     0.5527040046     -4.3391559859     -1.251268301
C     -0.6296119304     -3.8055616653     -1.8854649084
C     1.8999750665     -3.5469926167     0.4815762462
C     1.6464400346     -3.4986358932     -0.998141132
C     2.3306096544     -2.3816858451     1.0859639162
C     0.2604879369     -2.2827502908     2.4288105755
C     1.5743997668     -1.7855802946     2.1625814231
C     -1.9213709783     -1.5128012021     1.6007139263
C     -0.7574448352     -1.2335001381     2.4046922537
C     -2.6005427744     -0.421372955     0.9556057655
C     -2.3817728281     -1.6381205856     -1.1950615727
C     -2.7222134151     -0.4183412499     -0.5008030424
C     -0.5208285631     -2.5619353771     -2.5142946425
C     -1.5342696571     -1.5445064598     -2.3179382865
C     1.7906420698     -2.2250754488     -1.6788195454
C     0.7340789493     -1.8400078458     -2.5381658686
C     2.8874121473     -1.2971358695     0.3129239654
C     2.5585919706     -1.1402638802     -1.0605279152
C     1.9176809683     -0.386082451     2.2186182882
C     2.8984655887     -0.1601041809     1.1820831779
C     -0.395333718     0.1731650835     2.6389348738
C     0.9979136698     0.6365957368     2.529069997
C     -2.5509756611     0.8048470831     1.6326819034
C     -1.384417857     1.1383467193     2.4489392856
C     -2.9499982034     1.9742395796     0.9893876398
C     -2.5745671973     0.8479393095     -1.169348435
C     -2.9125830361     2.0271339944     -0.4425349871
C     -0.9668411273     -0.2543917367     -2.641088419
C     0.4406277605     -0.4278768396     -2.7473142024
C     -1.5213298697     0.9565411191     -2.1882436277
C     2.4524078807     0.2350034533     -1.5614486468
C     1.3131145713     0.6209928568     -2.3936510436
C     3.0771344234     1.092316473     0.6813203687
C     3.0107952261     1.2705340087     -0.7684506184
C     1.3009234288     2.0319124162     2.1426031402
C     2.4628421826     2.2255859085     1.3192727175
C     -1.1162120269     2.5675632592     2.2788269551
C     -2.2102042549     3.1022215392     1.5291413425
C     0.2270433165     3.0446259174     2.0615627719
C     -2.3338593384     3.2724981839     -0.7994353872
C     -1.9772019863     3.9916045071     0.4659205084
C     -0.6970170842     2.1507013618     -2.2774502148
C     0.759293347     1.9786786641     -2.3674201455
C     -1.2356854332     3.3580141254     -1.6793320543
C     2.6666657432     2.6124367797     -0.9869300163
C     2.4934575033     3.2716827518     0.339352693
C     1.5999637207     3.013947393     -1.8141387168
C     0.3741160108     4.1765104265     1.1447975727
C     -0.7366903163     4.5650054214     0.315123782
C     -0.3326713526     4.3478995362     -1.109896919
C     1.5074889939     4.2039270578     0.2530700768
C     1.0101954476     4.17061897     -1.1578142866


