60

 C     -0.7022659842     -4.0843245361     0.5233033732
C     -1.4016904817     -3.8450856244     -0.6573726819
C     -2.5500090103     -2.9985361867     -0.3522046589
C     -1.3447504644     -3.2752675388     1.5775272913
C     -2.4796634587     -2.5896610493     1.0077215689
C     -0.3647885762     -2.5987979214     2.2947240046
C     0.7022100248     -3.8899195802     0.6012274751
C     0.9424516719     -3.0957703885     1.8133352248
C     1.4087222149     -3.5399854932     -0.5661245558
C     -0.7336032428     -3.2795153601     -1.7977937635
C     0.6580643101     -3.172204356     -1.7603821368
C     -2.6703194766     -2.0243862449     -1.3748444382
C     -1.5312116747     -2.137286888     -2.2706541654
C     -3.1598488311     -0.7692005489     -1.0203311145
C     -2.7202352408     -1.2304186425     1.3700504628
C     -3.3072040326     -0.4056973903     0.3655549749
C     -0.5422986184     -1.213436436     2.6903876214
C     -1.8129299284     -0.5831932051     2.347459248
C     0.6340886876     -0.3876385536     2.8842286162
C     2.0338878518     -2.2889106133     1.9054411264
C     1.9188211749     -0.9689565073     2.5547406888
C     2.5407835739     -2.6446449012     -0.4812754785
C     2.9474581769     -2.1523973754     0.7636204703
C     1.2949161622     -2.0119053404     -2.346745135
C     2.4931448718     -1.7195672774     -1.6035302328
C     -0.9392019499     -0.9755220384     -2.8100816128
C     0.5302210959     -0.966262334     -2.9493188097
C     -2.7344891432     0.4001456394     -1.7322056355
C     -1.6474525587     0.3174287237     -2.6232802537
C     -3.2412447709     1.0272710494     0.4342755683
C     -2.9050216574     1.55781962     -0.8429407349
C     -1.9011690878     0.8101062517     2.5026630218
C     -2.7413479909     1.6419042275     1.6026008894
C     0.5346982799     1.0709589517     2.8783006414
C     -0.7799348236     1.6174956708     2.8875244285
C     1.6003860606     1.8895642322     2.251897352
C     2.9161262148     -0.1660448458     2.0139090441
C     3.4964917347     -0.844423604     0.8520870488
C     2.7136157945     1.2015566672     1.7032805132
C     2.966243108     -0.3670643439     -1.4825698322
C     3.4958231682     0.0621965581     -0.2065189965
C     3.1134906885     1.3834462132     0.3377308591
C     1.1822322971     0.2892311904     -3.0540134644
C     2.3402415946     0.6054012792     -2.2925612531
C     -0.9251633003     1.552941491     -2.8235488239
C     0.416074374     1.5062840182     -3.1630126086
C     -2.1360244769     2.7633662041     -0.9620602012
C     -1.1482295993     2.7628441907     -1.9909068212
C     -2.2163216198     2.9240796343     1.5287454874
C     -1.0311565753     2.9520198177     2.3937241711
C     -1.8655379233     3.5100719098     0.2515253242
C     1.2536651432     3.1009739263     1.5745699476
C     -0.051441308     3.6559833951     1.736821946
C     -0.5663974439     4.0775652751     0.4240857754
C     2.4910588232     2.3703931884     -0.4619443412
C     2.1971348062     2.0203887795     -1.8416298129
C     1.1071308624     2.5886480663     -2.4907852017
C     0.1353973542     3.387216752     -1.7939907854
C     1.6286634894     3.2965863198     0.1939797622
C     0.4577093403     3.8821361823     -0.5144162769


