60

 C     -0.6959576817     -4.6208432187     0.0185819719
C     0.7389702933     -4.3943022557     -0.0650915754
C     1.162365104     -3.8989893752     1.1710406124
C     -1.1538098699     -4.0094369959     1.2739722815
C     -0.0502526264     -3.6424377621     2.0170396547
C     -2.128441294     -2.9698896122     0.9959665956
C     -1.2560096461     -3.8319470443     -0.9787335289
C     -2.2500039251     -2.9083569784     -0.4389820923
C     1.0346873233     -3.582317591     -1.2349364954
C     -0.2385161839     -3.2722700061     -1.8557227762
C     2.046311392     -2.575640011     -1.1906637009
C     2.0029351813     -2.7736149291     1.2810362617
C     2.6016847166     -2.1879879099     0.117300164
C     0.0861882132     -2.3346163919     2.5828840585
C     1.4175299776     -1.8784590624     2.2706060298
C     -2.1364247858     -1.7489245849     1.7418742433
C     -0.9788162032     -1.3840805876     2.5692533796
C     -2.841493814     -0.6901265587     1.123935792
C     -2.5325960197     -1.6992602303     -1.1057360569
C     -3.0963371608     -0.6852923793     -0.2817872915
C     -0.4691442016     -2.0430735099     -2.5097509996
C     -1.7149118329     -1.2847265606     -2.2548164677
C     1.9367978639     -1.542657554     -2.166987719
C     0.6980978107     -1.2992405158     -2.8578766595
C     2.6178183515     -0.270471681     -2.0376489185
C     3.0901579988     -0.8688688965     0.282331861
C     3.2228135218     0.0563750232     -0.8272370173
C     1.7474962958     -0.5148487909     2.3342427336
C     2.7776077566     -0.0809767556     1.4441607322
C     -0.6548964356     0.0227349864     2.7757542941
C     0.7379597172     0.4281747703     2.7926143731
C     -2.7096920431     0.678327025     1.5649408944
C     -1.6638930429     1.0500763314     2.4628844967
C     -3.1643150043     0.6900665467     -0.6977529615
C     -3.0839672598     1.5391094202     0.4716241468
C     -1.7442022717     0.0788973523     -2.6084761777
C     -2.5211180447     1.0649604731     -1.8696759972
C     0.6396202258     0.0967300483     -3.1992924662
C     1.8492627953     0.7440451657     -2.7333370056
C     -0.5734822698     0.7723040332     -3.1208186739
C     1.8030368053     2.0532025927     -2.2621755881
C     3.1540463244     1.4146590964     -0.3202770895
C     2.911012964     1.3136632437     1.1095888202
C     2.5063671233     2.4158634271     -1.0415817388
C     1.067047505     1.8206764893     2.6695472349
C     2.1432255055     2.2557877387     1.759394843
C     -1.2961472876     2.4379556191     2.4597074359
C     0.0777575991     2.8038053909     2.6604654532
C     -2.5438910729     2.8267779897     0.3735977109
C     -1.8115207409     3.3315542404     1.4631494916
C     -1.8419260347     2.3554264165     -1.9426780061
C     -0.6148143825     2.155877528     -2.6908428788
C     0.5596209325     2.803446893     -2.2817621802
C     -1.8794177508     3.244418522     -0.8753117855
C     1.7435758825     3.4523595298     -0.3568332173
C     1.6628044906     3.4371789953     1.0473902051
C     0.442407953     3.8332717594     1.6854601357
C     -0.6918557136     4.1123844075     0.9324726221
C     0.5397078555     3.7100691893     -1.145425909
C     -0.6810609793     3.9934773044     -0.500605255


