60

 C     0.5279646019     -4.2578176595     0.
C     -0.8139962296     -3.8135506592     0.
C     -1.1842302549     -3.1858995397     1.2391063606
C     1.1012835685     -3.6334378151     1.1576428599
C     0.0639676058     -3.0402110224     1.9740293542
C     2.1055146628     -2.7212668161     0.7351227031
C     1.1012835685     -3.6334378151     -1.1576428599
C     2.1055146628     -2.7212668161     -0.7351227031
C     -1.1842302549     -3.1858995397     -1.2391063606
C     0.0639676058     -3.0402110224     -1.9740293542
C     -2.1474931599     -2.1579050105     -1.2543126111
C     -2.1474931599     -2.1579050105     1.2543126111
C     -2.6896198561     -1.6204656153     0.
C     -2.0883817632     -1.3222037913     2.4238896108
C     0.3161369648     -1.8978341364     2.7906204509
C     -0.8371641703     -1.180993047     3.1877440337
C     2.4201798828     -1.5385149385     1.4769496013
C     1.593260185     -1.1707110759     2.6390477371
C     3.0559432912     -0.5249620488     0.7350306842
C     2.4201798828     -1.5385149385     -1.4769496013
C     3.0559432912     -0.5249620488     -0.7350306842
C     0.3161369648     -1.8978341364     -2.7906204509
C     1.593260185     -1.1707110759     -2.6390477371
C     -2.0883817632     -1.3222037913     -2.4238896108
C     -0.8371641703     -1.180993047     -3.1877440337
C     -2.6817565499     -0.0662657541     -2.424799376
C     -3.1447522469     -0.2374519017     0.
C     -3.086600384     0.5430449736     -1.1962616774
C     -2.6817565499     -0.0662657541     2.424799376
C     -3.086600384     0.5430449736     1.1962616774
C     -0.7605100508     0.1747013084     3.6960215925
C     -1.9294124873     0.8710533366     3.233720145
C     1.651368476     0.1591463049     3.099008144
C     0.4742245382     0.8303701471     3.6489944186
C     3.0431541464     0.840064781     1.1654211974
C     2.4047711486     1.1735077684     2.3614920517
C     3.0431541464     0.840064781     -1.1654211974
C     2.9456817937     1.6981757496     0.
C     1.651368476     0.1591463049     -3.099008144
C     2.4047711486     1.1735077684     -2.3614920517
C     -0.7605100508     0.1747013084     -3.6960215925
C     -1.9294124873     0.8710533366     -3.233720145
C     0.4742245382     0.8303701471     -3.6489944186
C     -2.5523564298     1.8739284572     -1.2000212813
C     -1.8129808465     2.0501905425     -2.4733160009
C     -2.5523564298     1.8739284572     1.2000212813
C     -1.8129808465     2.0501905425     2.4733160009
C     -2.1075341503     2.4880073461     0.
C     0.5019844612     2.195024697     3.1864565962
C     1.6898615438     2.4105457681     2.4217375745
C     -0.5941279379     2.7476707271     2.4568503454
C     2.0488050576     2.8042612545     0.
C     -0.813146389     3.2503716152     0.
C     1.356666989     3.0993170049     1.22346459
C     -0.0800047709     3.3158742137     1.2169912762
C     1.6898615438     2.4105457681     -2.4217375745
C     0.5019844612     2.195024697     -3.1864565962
C     -0.5941279379     2.7476707271     -2.4568503454
C     1.356666989     3.0993170049     -1.22346459
C     -0.0800047709     3.3158742137     -1.2169912762


