60

 C     -1.9639482766     -4.2090396122     -0.0534360625
C     -0.9242544905     -4.3097935674     -1.044216969
C     0.278610726     -4.6207000253     -0.3623268925
C     -1.2706230499     -3.9951763707     1.2445604555
C     0.059909625     -4.3294505442     1.1138575201
C     -1.6386248337     -2.7017628941     1.7831434799
C     -2.668765949     -3.0420594062     -0.3019194619
C     -2.6548587034     -2.2097693572     0.886672863
C     -0.9693326491     -3.1301471094     -1.9037131855
C     -2.153061602     -2.4025196404     -1.5141169598
C     0.2096374742     -2.359491523     -2.1984422591
C     1.4288496029     -3.9811530971     -0.7293404922
C     1.4522585767     -2.9081015594     -1.6984539718
C     1.0781561066     -3.4183986338     1.5397290383
C     2.0675600466     -3.4450737144     0.4953961997
C     -0.6554879585     -1.7586696594     2.2430852491
C     0.7491993419     -2.1246303859     2.1294410304
C     -1.029996336     -0.3316859229     2.2695821585
C     -2.9022246519     -0.8663734429     0.7502703456
C     -2.3264855213     0.0429536455     1.73699899
C     -2.2485449224     -1.0226653779     -1.6318082592
C     -3.0247968906     -0.3481844597     -0.5968100004
C     0.1057992067     -0.8807951393     -2.3770691086
C     -1.1750278734     -0.2307163367     -2.2319926573
C     1.2996816684     -0.0392266505     -2.2613211679
C     2.4181073824     -1.9816098886     -1.2268654164
C     2.7738240059     -2.3254348885     0.1741610968
C     2.4678297637     -0.6451349101     -1.6452581221
C     1.7204215251     -1.0467542522     2.0152656885
C     2.812120987     -1.2390842761     1.0892513594
C     -0.0401905226     0.7227426617     2.4025864069
C     1.3661916187     0.3461567432     2.3256726612
C     -0.4345520977     2.1340047111     2.1691980541
C     -2.7044784611     1.3774798902     1.6237450001
C     -1.7947707565     2.4480860567     1.9242605451
C     -3.2501388415     1.0024620523     -0.7289036341
C     -3.4755125678     1.7950814471     0.452961078
C     -1.3012090666     1.2335446191     -2.2284562634
C     -2.5174867878     1.7992761343     -1.7006453606
C     1.2102070797     1.4144939589     -2.2296712098
C     -0.1036661458     2.0619302682     -2.2488123161
C     2.3285228058     2.154929769     -1.6839819436
C     3.4030159638     0.1405586766     -0.8996331416
C     3.5181576569     -0.1426141349     0.5670313192
C     3.4612931812     1.5132591889     -1.076289421
C     2.3238706818     1.366171047     2.0283902945
C     3.4918372119     1.0701838782     1.2222811867
C     3.7181029111     2.131989416     0.2442441108
C     0.5706661303     3.0782430067     1.6335746442
C     2.0591800026     3.3025994055     -0.8259970378
C     1.8982263901     2.6804833681     1.6040616115
C     2.7553469651     3.0750713242     0.4416600601
C     -0.2164603501     3.3908692341     -1.6843494289
C     0.1572923013     4.0090601766     0.5670987077
C     0.8108401202     3.8036178257     -0.7499061418
C     -2.178311581     3.5700028702     1.0543475035
C     -3.1918863252     3.1274537323     0.1585629401
C     -2.582858842     3.1412114296     -1.2017216857
C     -1.1726385375     4.2220262171     0.3009072913
C     -1.4245225682     3.8902742259     -1.1565401195


