60

 C     -0.8529689318     -4.6108233438     -0.6852987898
C     0.4275401891     -4.3532759303     -1.3247797728
C     1.4226488703     -4.405663755     -0.318202589
C     -0.6392799221     -4.4336603427     0.7622068098
C     0.7149761365     -4.3583391119     1.0214100235
C     -1.5078536929     -3.3832722556     1.248776767
C     -1.7319088539     -3.6154052766     -1.0703513987
C     -2.2682143919     -2.9512985737     0.1012430317
C     0.3181200451     -3.1657109946     -2.1350668677
C     -1.0669900722     -2.7231862438     -2.0330526504
C     1.3288872225     -2.1467221734     -2.1098915526
C     2.3986941059     -3.4349228312     -0.2856073036
C     2.4425032726     -2.3458609634     -1.21118493
C     1.2656461399     -3.2519401077     1.768226613
C     2.4328499572     -2.8366967108     1.0709834465
C     -1.019877093     -2.3636921469     2.128897423
C     0.4202036736     -2.2213267579     2.3435728304
C     -1.8261715327     -1.1869816825     2.1917061657
C     -2.7755134787     -1.646606108     -0.019184258
C     -2.8215383492     -0.8933177999     1.1718183919
C     -1.4412575677     -1.383375986     -2.1372776058
C     -2.5607201458     -0.9095515441     -1.2817258768
C     0.9453992166     -0.776649247     -2.4132242704
C     -0.4495107011     -0.40371831     -2.5597649422
C     1.8588333817     0.2950947026     -2.0575463392
C     2.9046501915     -1.2056491479     -0.4633796782
C     2.7889216446     -1.5040229176     0.9633088516
C     2.7378727667     0.0949840896     -0.9109799314
C     0.9547841624     -0.870144841     2.4836602148
C     2.1815368939     -0.513516987     1.7876676048
C     -1.3448424285     0.0560400248     2.6521474282
C     0.054898935     0.243355664     2.8129935596
C     -3.0706662446     0.5073320567     1.1532926747
C     -2.1908806165     1.1364526413     2.0926588274
C     -2.8879752013     0.4276875003     -1.2980541903
C     -3.307265922     1.1371082344     -0.0821174117
C     -0.8464237058     0.9978158599     -2.6390980545
C     -2.1335519045     1.3847993871     -2.1181830347
C     1.5213148959     1.6281276053     -2.3723762408
C     0.1446690945     2.0121487958     -2.6846911333
C     2.1359709506     2.6831731876     -1.6777747584
C     2.9088010583     1.1648497319     0.0720571949
C     2.4890615419     0.8525037323     1.446372421
C     2.7771423234     2.4855834611     -0.414668587
C     0.5281846488     1.5739157055     2.7238635627
C     1.8098936241     1.8669913277     2.1732300299
C     -1.7046335873     2.4455406721     1.8913904332
C     -0.3671783592     2.7114261209     2.3772262973
C     -2.9380990692     2.481353224     -0.2339699433
C     -2.3026136188     2.6561895526     -1.5502338842
C     -2.1446847045     3.1697125617     0.708159342
C     -0.0734845269     3.34722084     -2.1654615736
C     1.1631299969     3.7823747761     -1.5752433509
C     -1.2636190635     3.610800608     -1.4461986628
C     -1.2028331306     4.0268318591     -0.0380675212
C     2.2620005263     3.5331178361     0.4387962698
C     1.7634071188     3.214369384     1.6756078696
C     0.3915105009     3.7270508811     1.8037771613
C     1.2171449309     4.296753959     -0.2926574478
C     0.0293590001     4.3446259075     0.540263006


