60

 C     -0.6039901707     -3.9068852174     1.3474090803
C     -1.1652581243     -4.0312569651     0.0759313136
C     -2.3987691929     -3.2746462744     0.0181406044
C     -1.4049130881     -2.9245064682     2.0624587656
C     -2.5065135833     -2.5218406635     1.2329742615
C     -0.5313757206     -1.9422111618     2.5465230943
C     0.7805947892     -3.562062378     1.4782925848
C     0.8597213161     -2.3623024919     2.2846810302
C     1.6125860124     -3.6621636614     0.3433743787
C     -0.3847927249     -3.7278872941     -1.1090537549
C     0.9885977219     -3.6380601586     -0.9993348182
C     -2.4201402889     -2.5705681281     -1.2155062001
C     -1.1305711551     -2.7272050015     -1.8792005522
C     -3.0771775781     -1.3632500668     -1.2785101846
C     -2.9192396501     -1.1585398761     1.1994408141
C     -3.5069030995     -0.7245570732     -0.0346975317
C     -0.8937361528     -0.5515857605     2.549033712
C     -2.1724672616     -0.1530088818     1.9784104397
C     0.2073668958     0.4054328188     2.6962590319
C     1.8933455797     -1.4103079263     2.1188996189
C     1.5985954693     -0.006247548     2.4138123875
C     2.7341145751     -2.8178367289     0.2830454855
C     2.9308255383     -1.7293606862     1.1675990583
C     1.6940151892     -2.6422641714     -1.7914317983
C     2.874969377     -2.3031734244     -1.0752387214
C     -0.4904409471     -1.6095667484     -2.4836359635
C     0.976699824     -1.5998592159     -2.476855446
C     -2.5752412123     -0.3039542818     -2.1246366243
C     -1.2366156312     -0.3332250601     -2.60737861
C     -3.6426423616     0.644874514     -0.3091383821
C     -3.1160671955     0.9091141529     -1.6136240429
C     -2.4039315858     1.2653315976     1.7123919619
C     -3.1651866175     1.6580439876     0.563361718
C     -0.1087789533     1.7721020529     2.6392892004
C     -1.4359692681     2.2159662673     2.185929361
C     0.8589441911     2.7764864525     2.2589428674
C     2.4784393995     0.9776706714     1.8962801131
C     2.0847394601     2.3480152434     1.7387806098
C     3.5328845302     -0.6538038566     0.3878395837
C     3.4036213505     -1.0068406429     -1.0327577438
C     3.3560498688     0.6449708729     0.7746334014
C     1.6311868753     -0.3361891743     -2.6000976161
C     2.866368853     -0.047599032     -1.9005214292
C     -0.5225341365     0.9527243856     -2.6771456711
C     0.8921665688     0.8973056969     -2.704676911
C     -2.4221792231     2.1433490372     -1.5906380835
C     -2.6751786654     2.7429708949     -0.2795008406
C     -1.1347952123     2.2092961828     -2.1791101701
C     -1.2831299975     3.4690515008     1.5678552386
C     0.1428380529     3.8181752416     1.5818548873
C     -1.7883894896     3.669540313     0.2361463119
C     -0.2828539909     3.2769116313     -1.6811892298
C     0.5215339445     4.2055570321     0.3036925622
C     -0.6638365446     4.0455258678     -0.5728691378
C     2.5156437077     2.807703968     0.4178989773
C     3.2004280227     1.7093543373     -0.2122662815
C     2.8735357547     1.3421961583     -1.5265838791
C     1.7280340812     1.9683964327     -2.1546895632
C     1.6551201924     3.6252448088     -0.3364606697
C     1.170651182     3.1014536993     -1.6144319987


