60

 C     3.9260642401     1.1388207116     1.0918762868
C     4.1048958835     0.7057775473     -0.1981097493
C     4.0684046917     -0.779009586     -0.2247685079
C     3.8013598482     -0.0680609282     1.9333580296
C     3.6384929127     -1.2132964739     1.0602221085
C     2.8336179733     0.195862276     2.8643016373
C     2.8227956835     2.0273949689     1.3968471862
C     2.2804596097     1.5494702766     2.6204422086
C     1.8989254172     2.4382564622     0.3799942415
C     3.3097877036     1.1924506255     -1.2663421533
C     2.2107658041     2.0917541168     -1.0207772528
C     3.4312759099     -1.1664182227     -1.4035746223
C     3.1202804843     0.0609893928     -2.1695051036
C     2.4403398927     -2.1671618519     -1.3429295276
C     2.4257281115     -2.0215105     1.1554483839
C     1.9004877419     -2.5325287783     -0.0633611632
C     1.7220060232     -0.6649936662     3.0965382472
C     1.4468175628     -1.7623802026     2.2253675511
C     0.9201769338     1.5493411428     2.9273883857
C     0.6322576696     0.223704108     3.4744194896
C     0.4842631638     2.6245272252     0.7748208445
C     -0.0350496084     2.1545431329     2.0600209103
C     -0.4674354064     2.7888136534     -0.2575968167
C     1.1558347806     2.1236321855     -2.0230890904
C     -0.1364238987     2.5922185222     -1.6338993048
C     2.0985532578     0.0610303771     -3.0696446383
C     1.1982319633     1.2039524468     -3.1317244099
C     1.3545839675     -2.1514269092     -2.294380818
C     1.2904958797     -1.155084715     -3.2722205074
C     0.4674354064     -2.7888136534     -0.2575968167
C     0.1364238987     -2.5922185222     -1.6338993048
C     0.0350496084     -2.1545431329     2.0600209103
C     -0.4842631638     -2.6245272252     0.7748208445
C     -0.6322576696     -0.223704108     3.4744194896
C     -0.9201769338     -1.5493411428     2.9273883857
C     -1.4468175628     1.7623802026     2.2253675511
C     -1.7220060232     0.6649936662     3.0965382472
C     -1.9004877419     2.5325287783     -0.0633611632
C     -2.4257281115     2.0215105     1.1554483839
C     -1.3545839675     2.1514269092     -2.294380818
C     -2.4403398927     2.1671618519     -1.3429295276
C     -0.0128281406     0.7260145743     -3.6891221456
C     0.0128281406     -0.7260145743     -3.6891221456
C     -1.2904958797     1.155084715     -3.2722205074
C     -1.1558347806     -2.1236321855     -2.0230890904
C     -1.1982319633     -1.2039524468     -3.1317244099
C     -2.0985532578     -0.0610303771     -3.0696446383
C     -1.8989254172     -2.4382564622     0.3799942415
C     -2.2107658041     -2.0917541168     -1.0207772528
C     -2.2804596097     -1.5494702766     2.6204422086
C     -2.8336179733     -0.195862276     2.8643016373
C     -2.8227956835     -2.0273949689     1.3968471862
C     -3.6384929127     1.2132964739     1.0602221085
C     -3.8013598482     0.0680609282     1.9333580296
C     -3.9260642401     -1.1388207116     1.0918762868
C     -3.4312759099     1.1664182227     -1.4035746223
C     -3.1202804843     -0.0609893928     -2.1695051036
C     -3.3097877036     -1.1924506255     -1.2663421533
C     -4.0684046917     0.779009586     -0.2247685079
C     -4.1048958835     -0.7057775473     -0.1981097493


