60

 C     0.418255835     -4.0067760481     -0.7455966651
C     -0.8577093013     -3.7552622463     -1.1954944058
C     -1.7511815058     -3.6170247733     -0.0215837244
C     0.4049736607     -3.9742320993     0.7283269066
C     -0.9260306108     -3.6842568137     1.1564635992
C     1.5023814289     -3.1972680169     1.1414691595
C     1.5119519298     -3.227520643     -1.2191571622
C     2.3123590832     -2.9224248243     -0.0450880445
C     1.2892304319     -2.1998556041     -2.2099223461
C     -1.1313373377     -2.690559199     -2.1093742234
C     -0.075900048     -1.8566658396     -2.6037654388
C     -2.6144283068     -2.5506668105     -0.2466246965
C     -2.3571711203     -2.0882794928     -1.6245345937
C     -2.8880891238     -1.5597238555     0.7820509417
C     -1.1062298655     -2.7006099115     2.1342329348
C     -2.164395838     -1.7148874645     1.99707131
C     1.3503030556     -2.1653857842     2.1450084941
C     0.0454354446     -2.0165443754     2.6931844729
C     2.2228317317     -0.9653506151     2.0778868909
C     3.1507043518     -1.8304242264     -0.0609999749
C     3.1470156528     -0.8471561548     1.0205404197
C     2.265214017     -1.1567540315     -2.2519819699
C     3.2703774829     -1.1050008031     -1.2760249079
C     1.9365014395     0.242488313     -2.6101856558
C     -0.4027988876     -0.450514756     -2.9403560555
C     0.6216534005     0.6286115411     -2.8891094914
C     -2.6754679886     -0.8219600624     -1.9849075951
C     -1.7448291396     -0.0469141799     -2.7886516176
C     -3.2985849862     -0.2096045908     0.3685130436
C     -3.326525411     0.0898177606     -1.0355141055
C     -3.030416928     0.9074401142     1.2327682083
C     -1.7788649209     -0.54884231     2.7634652703
C     -0.4083718862     -0.7261102492     3.1702347219
C     -2.2338777215     0.7200929271     2.4128378729
C     1.764055612     0.2776874081     2.6615370018
C     0.4515954686     0.3673733162     3.2221476213
C     2.1093693241     1.5783834644     2.1296171922
C     3.458412219     0.4647501653     0.4371645832
C     3.5403545319     0.2844421148     -0.9539679894
C     2.8291513698     1.117001388     -1.8551729378
C     2.9024863016     1.690091001     0.9497397664
C     2.4104569274     2.3590476589     -1.4075371141
C     2.5603230884     2.7122642529     -0.0027497271
C     0.2406097744     2.0442141068     -2.5757975918
C     1.1582621728     2.8889801394     -1.8835565255
C     -2.0818090388     1.3206017384     -2.5399117284
C     -3.0852881133     1.3922810906     -1.5029845986
C     -1.1482054791     2.3513796739     -2.3821957627
C     -2.743651097     2.244451637     0.7242295734
C     -2.7407204453     2.4829992758     -0.6516794457
C     -1.6158268767     3.1835546825     -1.2611332449
C     -1.381307118     1.8882471263     2.5988374707
C     -0.0579860526     1.7125351531     2.9893217005
C     0.9959142165     2.4837799575     2.3715360532
C     -1.7120988937     2.8473389499     1.5617364444
C     1.5101620556     3.6305136611     0.288958331
C     0.6821711713     3.7897580924     -0.8652141188
C     -0.6802314161     3.818794578     -0.4588951617
C     0.6727086148     3.4778063362     1.439317421
C     -0.7158867362     3.6398482569     1.0014714149


