60

 C     4.1494482569     -2.1035221388     -0.5042669421
C     4.5822793226     -0.8008275575     -0.1417240332
C     4.3346964237     -0.5684880261     1.2522701139
C     3.3512119862     -2.5671774831     0.6139552637
C     3.499205851     -1.6807253501     1.7106113757
C     2.0301954406     -2.898762912     0.1720679225
C     3.2052205259     -1.9172791765     -1.5707706004
C     1.968505489     -2.5410698721     -1.2434259827
C     4.0718428453     0.1657192391     -1.1224171692
C     3.1503713154     -0.556994364     -2.0122473116
C     3.7384835109     1.4362230591     -0.7000252592
C     3.7249064613     0.6370819357     1.6536277405
C     3.6646124206     1.7319706452     0.7425610684
C     2.3436311126     -1.1350268986     2.3285903017
C     2.504115627     0.3086014495     2.3940921121
C     0.8944704795     -2.6075264046     0.964737487
C     1.0386757231     -1.6650626421     2.0702006424
C     -0.3868714766     -2.7031641211     0.3087449226
C     0.7701377891     -2.0757343359     -1.7998762357
C     -0.4203874726     -2.5346405945     -1.1387322315
C     1.9136420481     0.0210075666     -2.4541394156
C     0.7311182879     -0.8216706371     -2.5315413907
C     2.6404865319     2.1479549611     -1.3601253354
C     1.7185269502     1.4606625314     -2.2406289321
C     2.6222878885     2.6528964092     0.8949579585
C     2.1143880301     3.0541094567     -0.4147399097
C     1.3709040545     1.1550290265     2.3928453988
C     1.4817739591     2.4206009818     1.7157123496
C     -0.1148648419     -0.8628995578     2.3840518255
C     0.046950913     0.5739014748     2.5137954432
C     -1.5740598721     -2.4138098528     1.0584918927
C     -1.4334668008     -1.4222959359     2.1258190501
C     -2.8452340805     -2.507359175     0.374568802
C     -1.6529753085     -2.2369343998     -1.7493127893
C     -2.8407760197     -2.4297328003     -1.0498352821
C     -0.586579634     -0.2354846369     -2.7537323118
C     -1.7607831003     -0.9990208434     -2.5086306576
C     0.3990723882     1.9916110517     -2.3210480908
C     -0.7371083197     1.1760745628     -2.6510166329
C     0.7388899254     3.3324845428     -0.314641531
C     0.3167102462     2.989896254     1.0611845754
C     -0.0832423012     2.9525032937     -1.357800516
C     -1.1050596888     1.3976030951     2.23546688
C     -0.9645367633     2.5397023684     1.3158455656
C     -2.5527658588     -0.608684367     2.4322688441
C     -2.3737320806     0.816480046     2.370820287
C     -3.997936871     -1.7924558619     0.8362759385
C     -3.8675996747     -0.8741464929     1.8611705128
C     -3.7871998679     -1.3828993715     -1.4505411616
C     -3.069432466     -0.4211190773     -2.2283829535
C     -4.5746435946     -1.0432646537     -0.3509387026
C     -1.9428651468     1.7233086764     -2.0452171316
C     -1.4754607848     2.6833109838     -1.0990530348
C     -1.9817095371     2.6498071435     0.2346472222
C     -3.1263985595     0.9587204452     -1.8155113446
C     -3.5279787752     1.3731663926     1.6660322944
C     -4.4847369686     0.3952506063     1.464030016
C     -4.7087883612     0.3055804303     0.0223671562
C     -3.2346216348     2.0519007137     0.4083698137
C     -3.904945642     1.3046200974     -0.6498577875


