60

 C     -0.2584843042     -4.3612199675     0.8167332314
C     0.3622630539     -4.1530501391     -0.458332997
C     1.600304731     -3.4488770053     -0.2772378785
C     0.4658612108     -3.5294002174     1.7280829476
C     1.6662003703     -3.0668010485     1.1177161451
C     -0.3788571981     -2.5444373145     2.3501178982
C     -1.5541524038     -3.7688776776     0.7394248072
C     -1.7096411131     -2.8127716374     1.8136308303
C     -0.6057839985     -3.5345582537     -1.3324988309
C     -1.8539045587     -3.335961698     -0.5904448711
C     -0.1893118428     -2.5408446652     -2.2415983647
C     2.0918466993     -2.5205963882     -1.2637108146
C     1.1974088783     -2.082737586     -2.2779291219
C     3.0598854772     -1.6004421621     -0.8340842084
C     2.2403754552     -1.8353070404     1.5190284779
C     3.2583617841     -1.3698215801     0.6274655521
C     0.0659336702     -1.2008629799     2.5617111592
C     1.4699468466     -0.862539751     2.2772383631
C     -0.9445502272     -0.1350061876     2.5731677846
C     -2.5791501608     -1.7771044741     1.6248944345
C     -2.282845469     -0.4722878104     2.1919167047
C     -2.6625684647     -2.1762590704     -0.8004228026
C     -3.2353737804     -1.5593836259     0.3545946971
C     -1.0252447732     -1.4356099759     -2.5315505325
C     -2.3118462906     -1.2633906295     -1.9043064489
C     1.1973844575     -0.7040605459     -2.6722241281
C     -0.1703664429     -0.2953554364     -2.8559274341
C     3.252943002     -0.3401388545     -1.4707094165
C     2.1901922157     0.2242628194     -2.2647905363
C     3.8093283534     -0.1333395365     0.8160585693
C     3.9461368636     0.4911179336     -0.516046494
C     1.911310354     0.53520684     2.2796609659
C     3.1920359569     0.836442616     1.6907198215
C     -0.5365991615     1.2686639801     2.4662026813
C     0.8920227595     1.612360033     2.3500729706
C     -1.5172634726     2.2179104163     2.0425188985
C     -3.1513976606     0.4607303841     1.5492942516
C     -3.6650219311     -0.1881817002     0.3392359473
C     -2.8241099138     1.8153233244     1.5518859226
C     -2.8188714704     0.0378237227     -1.9242305147
C     -3.6735639167     0.5434317731     -0.8556417699
C     -0.5794904504     1.0265297847     -2.6588305372
C     -1.9954631603     1.1804564382     -2.3840664948
C     1.8033556735     1.6489847431     -2.0730224194
C     0.3993067252     2.0435115199     -2.2186186929
C     3.6932487126     1.8167530823     -0.4163104043
C     3.3969911888     2.0959334696     1.0229338681
C     2.6524447436     2.4498902856     -1.2210661756
C     1.2178931939     2.8831498121     1.7743677785
C     2.4300719675     3.0499424576     1.0443188763
C     2.050549483     3.3911225702     -0.3546272662
C     -1.1119050905     3.3651909247     1.2372835695
C     -0.1267531908     3.161719946     -1.4371490513
C     0.2137204464     3.5882867563     1.0040690288
C     0.6958904511     3.6862202405     -0.3841962659
C     -3.1410342956     2.5823152706     0.3844034858
C     -3.5130992306     1.9602665075     -0.8045255303
C     -2.4678706942     2.3254139378     -1.765626181
C     -2.0013441527     3.4741101068     0.1295067472
C     -1.5373462055     3.276153663     -1.1885302322


