60

 C     4.5172323359     0.4865996963     -0.5253278664
C     4.5172323359     -0.4865996963     0.5253278664
C     3.8312380226     -1.6066813862     0.0847251538
C     3.7132412671     -0.0676143249     -1.653490153
C     3.3199996362     -1.3777665002     -1.2959637945
C     2.7077920179     0.8574250049     -2.024419456
C     3.8312380226     1.6066813862     -0.0847251538
C     2.8504026259     1.9918664823     -1.087923294
C     3.7132412671     0.0676143249     1.653490153
C     3.3199996362     1.3777665002     1.2959637945
C     2.8504026259     -1.9918664823     1.087923294
C     2.7077920179     -0.8574250049     2.024419456
C     1.7540995276     -2.7169576886     0.7264466485
C     2.0317535124     -1.8411012413     -1.6099166734
C     1.4759046055     -2.8775736018     -0.7264466485
C     1.3890255289     0.4306013683     -2.355658468
C     1.0742250572     -0.9746920413     -2.2711407433
C     0.3069955301     1.4176522153     -2.2711407433
C     1.7540995276     2.7169576886     -0.7264466485
C     0.5785636797     2.6801007824     -1.6099166734
C     2.0317535124     1.8411012413     1.6099166734
C     1.4759046055     2.8775736018     0.7264466485
C     1.3890255289     -0.4306013683     2.355658468
C     1.0742250572     0.9746920413     2.2711407433
C     0.5785636797     -2.6801007824     1.6099166734
C     0.3069955301     -1.4176522153     2.2711407433
C     -0.4668190385     -3.5640872814     1.2959637945
C     0.2998056517     -3.464454332     -1.087923294
C     -0.5241921251     -4.1212901544     -0.0847251538
C     -0.3216010506     -1.4182320845     -2.355658468
C     -0.6113441829     -2.7737291839     -2.024419456
C     -1.0674244983     0.9876307162     -2.355658468
C     -1.3812206072     -0.442960174     -2.2711407433
C     -2.0964478551     1.916304179     -2.024419456
C     -0.4668190385     3.5640872814     -1.2959637945
C     -1.7980649206     3.2495684359     -1.653490153
C     0.2998056517     3.464454332     1.087923294
C     -0.5241921251     4.1212901544     0.0847251538
C     -0.3216010506     1.4182320845     2.355658468
C     -0.6113441829     2.7737291839     2.024419456
C     -1.0674244983     -0.9876307162     2.355658468
C     -1.3812206072     0.442960174     2.2711407433
C     -1.7980649206     -3.2495684359     1.653490153
C     -2.0964478551     -1.916304179     2.024419456
C     -1.8372084795     -4.1553378116     -0.5253278664
C     -1.9151763665     -3.181954111     -1.653490153
C     -2.6800238764     -3.6687381153     0.5253278664
C     -2.6103172121     -0.8389995411     -1.6099166734
C     -3.1502082976     -1.4725878497     1.087923294
C     -2.8531806177     -2.1863207812     -1.2959637945
C     -3.3070459176     -2.5146087682     0.0847251538
C     -3.1502082976     1.4725878497     -1.087923294
C     -2.6103172121     0.8389995411     1.6099166734
C     -3.2300041532     0.1606159131     -0.7264466485
C     -3.2300041532     -0.1606159131     0.7264466485
C     -2.6800238764     3.6687381153     -0.5253278664
C     -1.8372084795     4.1553378116     0.5253278664
C     -1.9151763665     3.181954111     1.653490153
C     -3.3070459176     2.5146087682     -0.0847251538
C     -2.8531806177     2.1863207812     1.2959637945


