60

 C     -2.2525325344     -4.202305482     0.5414214003
C     -1.351555129     -4.7375310515     -0.4388099544
C     -0.0444316198     -4.6133807464     0.0730762041
C     -1.4282198464     -3.6742512398     1.6362990182
C     -0.060380354     -3.9515048906     1.3720434776
C     -1.7866719996     -2.3071289254     1.9556564623
C     -2.7629085239     -3.0139158891     -0.0115076868
C     -2.7543814021     -1.9223751446     0.9402800338
C     -1.3106816162     -3.8164165309     -1.5777288196
C     -2.2180689987     -2.7542909932     -1.3481166152
C     0.87594551     -4.1166026306     -0.9409758369
C     0.0435390462     -3.480655314     -1.9524788628
C     2.0146003959     -3.479249069     -0.5077406949
C     0.964754861     -2.995810798     1.7180725855
C     2.1122915466     -2.9587221908     0.8861145132
C     -0.8444310193     -1.3557190729     2.4191267936
C     0.5678258044     -1.7436553196     2.4125025271
C     -1.2213291659     0.0531719445     2.3159278951
C     -2.7572811486     -0.6334342084     0.4796905142
C     -2.2996476798     0.3822180844     1.4167299174
C     -1.9087953185     -1.415698778     -1.7164375762
C     -2.5317298164     -0.3567613821     -0.9537604558
C     0.3688369283     -2.165238332     -2.4094585442
C     -0.6435635299     -1.1060761963     -2.3792798219
C     2.5731185011     -2.4758447379     -1.3434616803
C     1.7387412256     -1.7599899968     -2.238073906
C     2.9504945467     -1.785478786     0.8324534399
C     3.2781610833     -1.5087828428     -0.5360853735
C     1.4859465042     -0.6851091941     2.4693173869
C     2.6945470964     -0.697340483     1.6704578677
C     -0.2764110901     1.1236723988     2.5835821498
C     1.077037197     0.7008632324     2.625152929
C     -0.5742582729     2.5306945712     2.2481347308
C     -2.5139807415     1.689089864     1.020053595
C     -1.8276204702     2.8312892422     1.6090696152
C     -2.3400183233     0.9776894389     -1.3262275404
C     -2.7771222766     1.9866984815     -0.3784643151
C     -0.2497655704     0.2803693618     -2.4630700186
C     -1.2249608467     1.3165244458     -2.2054858411
C     2.0964128326     -0.3622359627     -2.1236281174
C     3.0917764903     -0.2204156209     -1.0584285914
C     1.1697403862     0.6571332476     -2.3286534716
C     2.9170356712     0.6422595794     1.2047720986
C     2.0828221319     1.5171165301     1.9949547943
C     3.0266066042     0.9125206078     -0.1973434116
C     0.519990471     3.4168190782     1.8873311989
C     1.7926989117     2.7820807751     1.5522845728
C     0.3458502004     4.480837231     0.9676576732
C     -1.9887497541     3.9172640119     0.707638736
C     -2.4784445024     3.3271954658     -0.5645939922
C     -0.9011083333     4.7467653475     0.3592338402
C     -0.8078952279     2.6767661205     -2.2505582056
C     -1.5867081769     3.738955664     -1.602485683
C     -0.7245320122     4.7409031252     -1.1068525006
C     1.5278950063     1.9982809307     -1.8587144139
C     2.43219467     2.1214631593     -0.7236798358
C     2.1712497159     3.1885952865     0.2073004823
C     1.3321642633     4.2593621003     -0.1289795602
C     0.5824977439     3.0284991179     -2.0944801425
C     0.6134101553     4.270822965     -1.3407747835


