60

 C     1.0109802531     -4.385746841     -0.1116733377
C     0.9090047563     -3.9121333226     -1.4113906525
C     -0.5004968151     -3.6920396426     -1.7523594194
C     -0.3634637705     -4.480158663     0.4237392997
C     -1.2862886605     -3.9989038454     -0.591533913
C     -0.3561190093     -3.8920394212     1.6777106537
C     1.8325423567     -3.6716646939     0.853212101
C     0.9974971518     -3.4046337163     1.9903370536
C     2.650533699     -2.6314283955     0.3994319983
C     1.663335993     -2.7757245974     -1.8698279507
C     2.6129988762     -2.2304225437     -1.0118601263
C     -0.6015905268     -2.452030916     -2.4074031134
C     0.7354354816     -1.8739163357     -2.5680408567
C     -1.6947598517     -1.5671894846     -2.1487035552
C     -2.2664004581     -3.0659925593     -0.2257467399
C     -2.5753993956     -1.9601993509     -1.090094811
C     -1.296635727     -2.8700448649     2.0478007055
C     -2.3184126024     -2.5365214253     1.153707487
C     0.8798329049     -2.1133237369     2.527471179
C     -0.5520341517     -1.7821883345     2.6458901936
C     2.7395598568     -1.3972387947     1.1445336568
C     1.8071102933     -1.0755755185     2.167023388
C     2.8674957523     -0.8233295136     -1.0916533574
C     3.1128470229     -0.3336107907     0.2334929308
C     0.9330677487     -0.4911430681     -2.6218750284
C     2.1635582298     0.0170564495     -2.0037333529
C     -1.53919223     -0.1492371558     -2.4688434902
C     -0.2330358675     0.4217392887     -2.727133503
C     -2.5551364383     0.7292375452     -1.9651654462
C     -3.1650084248     -0.9200341915     -0.2706448769
C     -2.8062584748     -1.1950799092     1.1165375173
C     -3.2559317447     0.3486858147     -0.7336536333
C     -0.9778532947     -0.4546492922     2.5744178765
C     -2.2325318563     -0.1444888362     1.8752289035
C     1.4210928201     0.3184852612     2.3716250241
C     0.0377727593     0.6016194858     2.7006328856
C     2.979268809     1.0173859993     0.5575032198
C     2.2325854196     1.3811197812     1.7761171719
C     2.3054690737     1.3904437689     -1.7731358652
C     2.902922122     1.8922265063     -0.5758189254
C     -0.0245601665     1.861712943     -2.5727760532
C     1.2874641594     2.3549338272     -2.2146673102
C     -2.3530085736     2.1014189636     -1.881801427
C     -1.1147616414     2.7110952501     -2.1625326313
C     -3.162339458     1.4677923689     0.1953574095
C     -2.5240699988     1.2347524445     1.4703689359
C     -2.8207545135     2.5963095878     -0.5694066217
C     -0.4221346417     1.93874978     2.6251369054
C     -1.7044451009     2.2765402295     1.9592091008
C     1.7855691716     2.7206591209     1.8925014614
C     0.4828586119     2.9789750595     2.3933786825
C     2.4340547418     3.2298146931     -0.4199803207
C     1.4547038836     3.5354539212     -1.4789390246
C     1.9689737971     3.6757036803     0.7917909752
C     -0.9338490751     3.8055209033     -1.1890537944
C     -1.9325335006     3.583622362     -0.1211729153
C     -1.5055525712     3.5105521056     1.2347158672
C     -0.1823496234     3.9770042704     1.5346386171
C     0.3496666793     4.2163667313     -0.857558532
C     0.6987059403     4.385711418     0.5546692843


