60

 C     4.5196182244     1.6575675148     0.562395188
C     4.5837509497     0.3514247239     1.1950208887
C     4.7966937801     -0.6473162878     0.2322989721
C     4.3727076401     1.4076609135     -0.853781138
C     4.675531023     0.0342568659     -1.088187235
C     3.0903399691     1.9072456283     -1.2981871086
C     3.3091349687     2.2355551301     0.9986360671
C     2.4830336454     2.5350682199     -0.1469215697
C     3.4634811012     0.2278810638     2.1285461934
C     2.6720448706     1.4503205496     2.0225161805
C     2.7665229934     -0.9738685336     2.2009000376
C     3.9515557855     -1.8123025258     0.1934503781
C     3.0088506157     -2.0354826989     1.2264858342
C     3.8371897222     -0.7345950149     -1.8881747823
C     3.4726194818     -1.9531392254     -1.1631003483
C     2.2158473736     1.1292274259     -2.1626125053
C     2.6376445609     -0.2091338834     -2.4780014893
C     0.7993044739     1.4098851873     -2.1365290163
C     1.0987243715     2.6319679675     0.0021308502
C     0.2993671043     2.3786385735     -1.1704511382
C     1.2536136827     1.4562347597     2.1511580765
C     0.4790684641     2.3131908648     1.2776915073
C     1.3433514545     -0.9518289534     2.4999896665
C     0.5753836292     0.2470921153     2.5764889567
C     1.7140843118     -2.5851482233     0.9115040741
C     0.7451703943     -2.0650436858     1.8497426097
C     2.14322991     -2.2725905603     -1.4579869789
C     1.6351464539     -1.2328578114     -2.3709916784
C     1.2527051224     -2.7062902135     -0.4306402166
C     -0.1840532579     0.4097750432     -2.5150741022
C     0.2748049828     -0.9633470641     -2.4471326016
C     -1.6257081358     0.6928628934     -2.4548607603
C     -1.0638923187     2.6227823495     -1.0520475336
C     -2.055829609     1.9505129136     -1.8904486091
C     -0.9482702928     2.3218530762     1.3680049436
C     -1.6545774747     2.8390009881     0.227422949
C     -0.8728568913     0.1459064436     2.5137517823
C     -1.6505650987     1.3272409583     2.1646756766
C     -0.6415055002     -2.1548946186     1.6515616431
C     -1.4747703449     -1.1538639545     2.2765493312
C     -0.1766312219     -2.6533851855     -0.690966621
C     -0.6469444592     -1.9293443371     -1.8451893358
C     -1.1108803864     -2.7511244689     0.4106745597
C     -2.5549133386     -0.37075849     -2.3812870117
C     -2.0301360043     -1.7060853899     -2.0249653224
C     -3.8801202202     -0.2292542674     -1.7789576173
C     -3.3144801485     2.0930458161     -1.2989291205
C     -3.0617865963     2.6485429034     0.0558849112
C     -4.2412481754     1.0108292622     -1.1727131648
C     -3.0856437687     1.2056441833     2.0123908609
C     -3.7974473135     1.9477032838     0.965257224
C     -4.679461464     1.0073208558     0.2220585165
C     -2.8872170594     -1.2446318187     2.0478166958
C     -3.6827306069     -0.061116391     2.0408750748
C     -4.6941382626     -0.1737284948     0.9443467881
C     -2.4988986227     -2.7200667455     0.1289595321
C     -2.9524479054     -2.312485733     -1.1744898488
C     -4.1291594723     -1.4507226474     -1.0448271003
C     -3.3959465191     -2.1200591053     1.0490406475
C     -4.4782606914     -1.4217719453     0.3092271371


