60

 C     0.7754170125     -5.1329257689     0.0581087736
C     0.1039243375     -4.8349406174     1.2075837173
C     -1.2504634407     -4.35532511     0.926007436
C     -0.1262957388     -4.7432937227     -1.0617163701
C     -1.365637303     -4.1919848955     -0.5106285925
C     0.6157513862     -3.9093452026     -1.8738828754
C     1.9579019649     -4.2514848771     0.0188194214
C     1.9411868163     -3.6321965894     -1.2134870078
C     0.8022742605     -3.7943778114     1.9852770403
C     1.942591575     -3.3749183025     1.2114530372
C     -1.4671714474     -3.2555369663     1.7739218762
C     -0.1622725688     -2.8549714648     2.3935664329
C     -2.273571207     -2.2269429366     1.316589609
C     -1.9011208281     -2.9564399276     -1.0267016401
C     -2.5795293122     -2.1234096141     -0.0816821445
C     0.133590248     -2.6639933686     -2.3780091895
C     -1.1712919522     -2.1938549024     -2.0705752933
C     2.1973186691     -2.2489869532     -1.3684584159
C     1.2285703083     -1.7037130114     -2.2913378388
C     2.1802701483     -1.9827018108     1.0787722079
C     2.5003982556     -1.4258336674     -0.2493408805
C     0.1623722786     -1.474434773     2.461206398
C     1.4286791308     -1.0610435434     1.9275920869
C     -2.1262567647     -0.8801970762     1.8132099366
C     -0.9153582412     -0.4682011628     2.4094813333
C     -2.8718048977     -0.7414411893     -0.3402170246
C     -2.7561661636     0.0112851714     0.8800340858
C     -1.4159087393     -0.7691956342     -2.2773091836
C     -2.4858009127     -0.1020721209     -1.5433296387
C     1.0151228104     -0.3392730833     -2.3927775856
C     -0.3315307036     0.1044039072     -2.6936549144
C     2.4456892441     -0.0165478503     -0.4566262236
C     1.8822234511     0.5542083541     -1.6471515514
C     1.6951544991     0.3472884176     1.8306493783
C     2.4600567154     0.8349769365     0.7258139194
C     -0.5971138832     0.9385394756     2.4185111638
C     0.812775138     1.3170949326     2.4813665717
C     -2.5065424544     1.3981199562     0.8958814004
C     -1.5232313086     1.9021102582     1.8584183486
C     -2.5820128839     1.3147360247     -1.5489547767
C     -2.7009883532     2.0896224095     -0.3315628915
C     -0.5256977018     1.5073612797     -2.7784452271
C     -1.7511544149     2.0824549015     -2.4190567224
C     1.6811268972     1.9922069327     -1.7494054572
C     0.5380082535     2.4751357695     -2.424588428
C     2.6290127092     2.2178017366     0.562122638
C     2.2948001848     2.8488827299     -0.7579790481
C     1.1678685869     2.6732565773     2.4465495782
C     2.2656869564     3.1003211216     1.5886687173
C     -1.1126477839     3.2665043476     1.7609511357
C     0.1275295726     3.6807728933     2.2717455708
C     -2.0849135244     3.3894779264     -0.5460770137
C     -1.4879179896     3.3775109715     -1.8335699164
C     -0.0982645181     3.7055192891     -1.9722716195
C     -1.4060958884     4.0455113435     0.502937982
C     1.8311866373     4.1439317317     -0.5121507224
C     1.8889897601     4.3504970247     0.9490563011
C     0.6358009188     4.7064637652     1.3731657823
C     0.5023971706     4.5133024759     -0.9835618864
C     -0.2669149715     4.8202858925     0.2070482994


