60

 C     0.9604771402     4.4168605082     0.214371027
C     -0.3567255464     4.4945839711     0.6313998249
C     -1.2460928589     4.1212890959     -0.5162616159
C     0.9148782764     4.0500078457     -1.2334819418
C     -0.4418100712     3.6817491481     -1.587702656
C     1.9362015649     3.1935268448     -1.4921536382
C     1.8722016752     3.5092315438     0.8454852271
C     2.6721165797     2.9617349715     -0.2328427731
C     1.3908614247     2.5989451331     1.8783348279
C     -0.8012217402     3.7744801759     1.7511925596
C     0.034570235     2.7709914038     2.3262418289
C     -2.309150448     3.3291824519     -0.002751678
C     -2.0726851626     3.1368232391     1.3992427537
C     -2.7208818364     2.2214389561     -0.7580790839
C     -0.6917060553     2.3825990537     -2.2304954653
C     -1.9370073987     1.7824075644     -1.929838059
C     1.7350697976     1.9066923353     -2.1335613707
C     0.4163898794     1.4569174597     -2.5243236919
C     3.0594339278     1.6536443805     -0.2284601672
C     2.6249515799     1.013294375     -1.505765267
C     1.9349683504     1.2453627302     1.9398349365
C     2.925054088     0.8543589928     0.9556442362
C     1.1523728879     0.1466103602     2.5305405362
C     -0.8079016795     1.5902511208     2.5445685715
C     -2.1056487761     1.8422571815     1.9356576945
C     -0.2969850563     0.2930642039     2.6271716271
C     -3.1685627014     1.0482560603     -0.1013977154
C     -2.7622835554     0.7800356692     1.2494455669
C     -2.1555388917     0.3850274123     -2.1111026262
C     -3.0749893181     -0.0267640918     -1.0692397495
C     0.203704762     0.0173462601     -2.6153076523
C     -1.1387763638     -0.5279021897     -2.5141255491
C     2.4945646987     -0.3766563835     -1.6089101412
C     1.3233644434     -0.9074110771     -2.3263207165
C     3.2319094476     -0.4992545604     0.7590260377
C     3.1284118893     -1.1368841735     -0.589226464
C     1.658966022     -1.1680835243     2.4532206636
C     2.8269806437     -1.4495487038     1.6908075885
C     0.7867532123     -2.3384674415     2.3340341897
C     -1.1887599375     -0.8507173329     2.3203013905
C     -2.4135489177     -0.5777576719     1.6133985824
C     -0.6175856603     -2.2048283093     2.2580381696
C     -3.137417695     -1.3111447073     -0.6592642812
C     -2.9647150578     -1.6184666446     0.7713049643
C     -1.3773314221     -1.9652442653     -2.2812921689
C     -2.4888781009     -2.3533559443     -1.433984538
C     1.0892156192     -2.2846476407     -2.2222278384
C     -0.2574056429     -2.8562276705     -2.297128786
C     2.7912719576     -2.4934967174     -0.4017387152
C     2.6305287359     -2.716636684     1.0149880457
C     1.4805391334     -3.3420116913     1.5054347485
C     1.8758436528     -3.1163557476     -1.2982993017
C     -0.2508191378     -4.0490397677     -1.5121603966
C     0.7493062958     -4.1910419486     0.6231931656
C     1.0291837715     -4.1146223643     -0.801499599
C     -1.3376747289     -3.2740015656     1.5597664159
C     -2.5153320689     -2.9182396177     0.8296107613
C     -2.3789096517     -3.4573390597     -0.5557210954
C     -0.6460203647     -4.2535052464     0.7842827311
C     -1.2677255458     -4.2793171063     -0.5718741297


