60

 C     1.5325773332     -3.611834473     -1.0622247048
C     0.2793004237     -3.7273485302     -1.6318691814
C     -0.6848775116     -4.1041488858     -0.5913035957
C     1.370919822     -3.8293524017     0.405432476
C     0.0004748548     -4.1199841212     0.6829023169
C     2.0726144586     -2.821842459     1.0627387671
C     2.3575886259     -2.4799861753     -1.2758595689
C     2.8842487976     -2.1528689886     0.0437375742
C     1.9493945429     -1.3982866674     -2.117972676
C     -0.2491833446     -2.6221638481     -2.3661535649
C     0.5921074232     -1.4897906534     -2.6690683687
C     -1.8496513745     -3.3387802298     -0.7865895869
C     -1.6182716616     -2.4285341023     -1.9275691422
C     -2.5334131313     -2.8474370435     0.3478640739
C     -0.5968728288     -3.4459895935     1.7691642851
C     -1.9386713635     -3.0112673209     1.6250741671
C     1.4285097098     -1.9895503105     2.0782322205
C     0.126475527     -2.3526530765     2.4478993288
C     1.8401951246     -0.5782497398     2.2285491298
C     3.3826873481     -0.9278076168     0.2788618532
C     3.0330803661     -0.1901244486     1.5131216166
C     2.5622316197     -0.0740431242     -1.8978142226
C     3.4719302781     0.0425522268     -0.800131967
C     1.8515187851     1.1558716366     -2.2974713656
C     -0.0976839121     -0.2822227149     -2.9264468744
C     0.5276978202     1.0287933448     -2.7945751786
C     -2.2156826042     -1.1600788822     -1.9755394592
C     -1.4875030174     -0.139055278     -2.6636106021
C     -3.1510435954     -1.5187032966     0.2968952466
C     -3.1018252732     -0.7203850625     -0.8670911551
C     -2.0863306912     -1.7389856475     2.3111431286
C     -0.8276843508     -1.2991093196     2.7780424228
C     -2.9242224464     -0.8762058659     1.5819154226
C     0.8980699743     0.4676169635     2.5925448931
C     -0.5079080068     0.0922321333     2.7538915639
C     1.2251036938     1.877558451     2.2997114469
C     3.3397429039     1.1356721471     1.2706884863
C     3.694286262     1.2847548744     -0.1581749876
C     2.4747840337     2.2069526691     1.6551216234
C     2.1348255553     2.4131495076     -1.6386692331
C     3.0990120651     2.4480416377     -0.5954452209
C     2.4767264008     3.1217808933     0.5575620562
C     1.0648843214     3.3411256025     -1.2733278192
C     1.3139982033     3.756731124     0.1261736059
C     -0.492122974     1.997396718     -2.5463273876
C     -1.7381967151     1.2657598896     -2.4413108198
C     -0.2559522217     3.157985698     -1.7224042104
C     -3.3251219942     0.6702866591     -0.6815817187
C     -2.7563927255     1.6883126825     -1.5770543089
C     -2.7710490717     0.5176854181     1.7178396106
C     -1.5847287704     1.0252472738     2.4195292819
C     -3.3180036842     1.2715087488     0.6289147929
C     0.1628636498     2.7925704751     2.0816886473
C     0.2310277749     3.7862424086     1.015821095
C     -1.2360115258     2.388057984     2.1849371888
C     -1.3514915093     3.6204792774     -0.8676366588
C     -2.6211288754     2.917478572     -0.885627418
C     -2.9783274132     2.6412304581     0.4790423335
C     -1.0727890807     3.9522844273     0.4842840067
C     -2.0067358244     3.2114301756     1.3195264351


