60

 C     0.8624244003     4.2170120039     -1.1019808754
C     -0.0643938304     4.2850133308     0.0274403763
C     0.5375261055     3.7047148372     1.1863125079
C     2.0135843428     3.5947487753     -0.6943869357
C     1.9026531355     3.3874041841     0.7618004447
C     2.2466725242     2.4017982536     -1.5316086146
C     0.2180744565     3.3767146497     -2.1118143459
C     1.0706048128     2.2560787654     -2.367138946
C     -1.323125598     3.8329590774     -0.4193835551
C     -1.1077090732     3.1408283438     -1.7335190618
C     -2.1338043618     3.1984351011     0.5050940932
C     -0.2021112996     2.7394628883     1.9810127308
C     -1.5826632531     2.6415794614     1.7254466974
C     0.4902889184     1.5313637477     2.5273016402
C     2.5286847085     2.3098092629     1.2824764514
C     1.8958574041     1.4945856777     2.3363861028
C     2.9033183233     1.2858269186     -0.9980472522
C     3.288367511     1.3815976135     0.4120576373
C     2.6104653801     -0.0314224851     -1.5485551214
C     0.5321303949     0.9634058772     -2.5923170315
C     1.4405969666     -0.1503322483     -2.4019078665
C     -1.7172207623     1.8507392349     -1.9800515052
C     -0.9130111593     0.7602596635     -2.4856765264
C     -3.0907559932     2.2635659869     0.0168943772
C     -2.8711024564     1.5414758512     -1.1788174581
C     -2.3169115429     1.4034673063     1.9991093772
C     -3.356641684     1.2979340493     1.046449121
C     -0.2052179512     0.2470849839     2.7111389259
C     -1.655420869     0.2085480638     2.4735090402
C     0.5356980849     -1.019867611     2.6623010201
C     2.5767653392     0.2750793599     2.3326246917
C     3.4320198902     0.2197854121     1.132050626
C     1.9462900698     -0.9592281486     2.463930062
C     3.0549453349     -1.2336660729     -0.8259036815
C     3.3419936212     -1.078910987     0.5722016384
C     2.6151709139     -1.8851743879     1.531422706
C     2.5517618602     -2.512818527     -1.2077100554
C     0.8959499727     -1.4437190264     -2.66112771
C     1.5502266977     -2.604593139     -2.2331503814
C     -1.4341934586     -0.6175311264     -2.395137778
C     -0.546118765     -1.6687256177     -2.6379085024
C     -3.2908050018     0.1571234727     -0.9541838442
C     -3.6638574082     0.0518828378     0.4450968721
C     -2.6472617316     -0.9149957539     -1.601428907
C     -2.2839681898     -1.0267978712     2.1708713585
C     -3.3371207674     -1.0928409795     1.153159621
C     -0.1179446289     -2.288484321     2.266838983
C     -1.538089126     -2.2764255641     2.0880878948
C     1.9846832353     -3.0411801907     1.1259379882
C     2.1593388066     -3.4665959158     -0.2146936632
C     0.6010471543     -3.297724326     1.5465720759
C     0.559187791     -3.6083132756     -1.8828137946
C     -0.7406021158     -3.0313854795     -2.095214605
C     0.9144176458     -4.1052840257     -0.6247111518
C     -0.0180356836     -4.0451037406     0.464380585
C     -2.7457426774     -2.2092348226     -0.9536740415
C     -3.1123788568     -2.2624136793     0.4043944375
C     -2.1341046763     -3.0933185462     1.094224581
C     -1.7395997523     -3.2518130543     -1.1652762077
C     -1.3708331286     -3.8023835684     0.1516146545


