60

 C     -2.7252185632     -3.4223334141     -0.1957947845
C     -1.4385382843     -3.9310764471     0.0677489869
C     -0.9542251883     -3.4732051607     1.3592298775
C     -2.9996475521     -2.4987767552     0.834852451
C     -1.9117424374     -2.4854962593     1.8046656889
C     -3.376101626     -1.2474892031     0.2807028755
C     -2.6051117108     -2.6092883901     -1.4126761806
C     -3.0938065101     -1.3133041462     -1.1636844921
C     -0.5940008639     -3.7140112196     -1.083293705
C     -1.2929185784     -2.7198506349     -1.9404402052
C     0.7568812912     -3.6415995372     -0.9078677646
C     0.4436339898     -3.2934483926     1.5497424192
C     1.3304029804     -3.6309925512     0.4512275639
C     0.8428114245     -2.205661725     2.3879292488
C     -1.4856242354     -1.2496994501     2.3800603708
C     -0.1226310433     -1.1769206714     2.7734933744
C     -3.1474488925     -0.0476750254     0.9652426454
C     -2.1656831924     0.016454971     2.0479212655
C     -3.334942597     1.0979180233     0.1441672039
C     -2.5195266478     -0.1836971152     -1.8233748978
C     -2.9012589888     1.0458529923     -1.2683784369
C     -0.5743251576     -1.5881932944     -2.4774289637
C     -1.2320100374     -0.2853320713     -2.498415576
C     1.5414747995     -2.7534909858     -1.7481777733
C     0.8854321614     -1.6734780405     -2.4698145395
C     2.5638580897     -2.9809511821     0.3341760016
C     2.7269099336     -2.4987612216     -1.0464257457
C     2.1193252336     -1.5655720648     2.2502653017
C     2.9848687543     -1.9374591119     1.1994265047
C     0.5578211014     0.0743510261     2.8928135074
C     1.951597687     -0.1644917914     2.5825863596
C     -1.5093259045     1.2834905594     2.2891033363
C     -0.0759366722     1.3115222408     2.6120840985
C     -3.0226910671     2.3468608364     0.6173682408
C     -2.0760349767     2.4881805067     1.6936834274
C     -2.2840294667     2.2978154466     -1.6043843968
C     -2.5547161859     3.1797520407     -0.5052639588
C     -0.4556526881     0.9487550249     -2.6517268036
C     -0.9909489783     2.2697925843     -2.2345915316
C     1.6178879638     -0.4719498072     -2.6086950066
C     0.9524039479     0.8031876802     -2.7309769399
C     3.3501474354     -1.230011385     -1.0240340264
C     3.5942080666     -0.8822431724     0.3791241862
C     2.8738092902     -0.2532662291     -1.9046843522
C     2.6786757293     0.8094186446     1.9173069843
C     3.4877486289     0.4417920749     0.7608380003
C     0.7678611457     2.411516151     2.1153845556
C     2.0920825296     2.1045517026     1.6872655822
C     -1.2731894955     3.6179991305     1.3879968444
C     -1.588850802     4.0270556189     -0.0110584533
C     0.1359018836     3.5448900805     1.4722216907
C     -0.0693547858     3.3122225032     -1.8287168237
C     -0.3839245258     4.159807099     -0.7196449899
C     0.6989115756     4.0669265864     0.2456414851
C     1.844711821     1.822794662     -2.1960115873
C     2.9430619231     1.1348594218     -1.5397517125
C     3.2942065459     1.4938123591     -0.226377614
C     2.5841968062     2.576785687     0.3994411145
C     1.3451922535     2.999683896     -1.6952702338
C     1.7933927624     3.4416765053     -0.3667496977


