60

 C     -4.8225417041     -1.0159498616     0.1901831881
C     -4.9571129671     0.2735937167     -0.2738202822
C     -4.2825435165     0.416344998     -1.5559105483
C     -3.9715312725     -1.7453276796     -0.7446162308
C     -3.6637714289     -0.8451574361     -1.8591708306
C     -2.8824361376     -2.2347120617     -0.0036412962
C     -4.1620624229     -0.9657527649     1.4948471912
C     -3.0311296303     -1.793361629     1.4168898098
C     -4.367125423     1.2127939651     0.6865825799
C     -3.9587214491     0.4384337942     1.8410237114
C     -3.4374821781     1.5518677759     -1.4267199819
C     -3.4095899233     1.9858103747     -0.0031264975
C     -2.2521006059     1.5790855122     -2.1351581049
C     -2.3633965062     -0.8699975236     -2.4252033866
C     -1.8114790062     0.3912708474     -2.8228723129
C     -1.564959143     -2.3667624702     -0.5663612611
C     -1.3795511755     -1.8391951747     -1.9080706614
C     -0.4153985282     -2.5055536383     0.3107577655
C     -1.849679201     -1.5069761329     2.1557348389
C     -0.5786849225     -2.0820076655     1.71432795
C     -2.7539236783     0.7767937435     2.4309170729
C     -1.828480551     -0.2523770766     2.8374143726
C     -2.1251146032     2.3330391093     0.5899397191
C     -1.9092887272     1.8556862869     1.9048605255
C     -1.0539666427     2.2367774432     -1.636244127
C     -0.929697326     2.5465922869     -0.2446194212
C     -0.4117770627     0.5502091443     -3.0673862488
C     0.0605669599     1.7452856387     -2.3721064541
C     -0.0605669599     -1.7452856387     -2.3721064541
C     0.4117770627     -0.5502091443     -3.0673862488
C     0.929697326     -2.5465922869     -0.2446194212
C     1.0539666427     -2.2367774432     -1.636244127
C     2.1251146032     -2.3330391093     0.5899397191
C     0.5753672991     -1.6704525927     2.3948216067
C     1.9092887272     -1.8556862869     1.9048605255
C     -0.5682780922     0.3751836348     3.0767272139
C     -0.5753672991     1.6704525927     2.3948216067
C     0.5682780922     -0.3751836348     3.0767272139
C     0.4153985282     2.5055536383     0.3107577655
C     0.5786849225     2.0820076655     1.71432795
C     1.3795511755     1.8391951747     -1.9080706614
C     1.564959143     2.3667624702     -0.5663612611
C     1.8114790062     -0.3912708474     -2.8228723129
C     2.2521006059     -1.5790855122     -2.1351581049
C     2.3633965062     0.8699975236     -2.4252033866
C     3.4095899233     -1.9858103747     -0.0031264975
C     3.4374821781     -1.5518677759     -1.4267199819
C     4.367125423     -1.2127939651     0.6865825799
C     2.7539236783     -0.7767937435     2.4309170729
C     1.828480551     0.2523770766     2.8374143726
C     1.849679201     1.5069761329     2.1557348389
C     3.9587214491     -0.4384337942     1.8410237114
C     2.8824361376     2.2347120617     -0.0036412962
C     3.0311296303     1.793361629     1.4168898098
C     4.1620624229     0.9657527649     1.4948471912
C     3.6637714289     0.8451574361     -1.8591708306
C     4.2825435165     -0.416344998     -1.5559105483
C     4.9571129671     -0.2735937167     -0.2738202822
C     3.9715312725     1.7453276796     -0.7446162308
C     4.8225417041     1.0159498616     0.1901831881


