60

 C     2.3995159903     -3.7430577461     0.0587781265
C     1.0803730302     -4.1721481569     -0.033422702
C     0.5193643362     -3.754288293     -1.320277913
C     2.6315508942     -2.8698778212     -1.0609196719
C     1.4376354389     -2.7765826418     -1.8808220174
C     3.1732551963     -1.6754368633     -0.5796361504
C     2.4937280391     -2.9087448896     1.2570798596
C     3.0612879761     -1.6971811965     0.9163000307
C     0.3583477622     -3.8155281768     1.1890315762
C     1.1955668144     -2.8838061243     1.918850684
C     -1.015158686     -3.618614072     1.0983965622
C     -0.8379397172     -3.5218279418     -1.3783103335
C     -1.6378373167     -3.699701849     -0.1910203775
C     -1.3584459667     -2.3436613728     -2.059267551
C     0.9565716327     -1.500883847     -2.3312159442
C     -0.4926908042     -1.2904615679     -2.4760464342
C     2.9299387268     -0.4716990197     -1.2429337786
C     1.798272585     -0.3218103724     -2.1462860221
C     3.3837270589     0.650881409     -0.4948410259
C     2.6775554037     -0.4911760808     1.5878750046
C     3.1642555075     0.6670947777     0.9790551269
C     0.6403192248     -1.6582620339     2.417538139
C     1.4458515932     -0.4332080886     2.3644670368
C     -1.6408865838     -2.5152495245     1.7908828884
C     -0.8279108063     -1.5405934074     2.4235586824
C     -2.7373583191     -2.7969693063     -0.2287559595
C     -2.655231911     -2.0462495213     -1.4556517006
C     -2.7941703534     -2.0804348377     0.9939017909
C     -3.149308933     -0.7801144211     -1.4961558373
C     -1.0415893131     0.0775774692     -2.5530090165
C     -2.4292669317     0.2479478581     -2.2167436487
C     1.2733951425     1.0249520962     -2.3447712131
C     -0.1708661864     1.2436227579     -2.485974678
C     3.2024834293     1.9096902239     -0.9829896501
C     2.1146021371     2.1404354247     -1.9275762335
C     2.7233236899     1.9756172893     1.3204821623
C     2.9835291987     2.8052331973     0.1598558391
C     0.8362535459     0.8797925947     2.5363102203
C     1.501932736     2.1118313704     2.0667539218
C     -1.3929114366     -0.2307102308     2.5687609279
C     -0.5842087636     0.9188812134     2.7196425239
C     -3.2664700319     -0.7363250048     1.007626743
C     -3.6893652441     -0.167843532     -0.2594469863
C     -2.6610273462     0.1520768326     1.9422975438
C     -2.8845953218     1.4696971217     -1.6785729153
C     -3.639806433     1.2083892727     -0.4456335992
C     -0.7342830291     2.5398940478     -2.0438260133
C     -2.0611682669     2.5791436618     -1.5182591729
C     1.5396739895     3.372660075     -1.5520887281
C     2.0993455443     3.7785786667     -0.2300351006
C     0.1382870908     3.5485082058     -1.5106665706
C     0.6860232776     3.2715595085     1.7331628101
C     1.0109320599     4.0788804418     0.6073915258
C     -0.1784511979     4.1337383672     -0.2334147371
C     -1.3837303698     2.0648185055     2.2852727471
C     -2.6435655704     1.567620036     1.7425909899
C     -3.1434961535     2.1121683134     0.5358410417
C     -2.3263053762     3.0917923739     -0.1537854803
C     -0.7768898294     3.1805593672     1.7729677338
C     -1.301963053     3.7388051622     0.517685024


