60

 C     0.3302627333     -3.4025229361     -1.9851549766
C     -0.8900577135     -2.9218153784     -2.4014579501
C     -1.8931504507     -3.1971000962     -1.3610151799
C     0.1488509257     -3.9724186748     -0.6171351612
C     -1.2274028085     -3.7671117764     -0.2346525117
C     1.2181075438     -3.5777442359     0.1654108776
C     1.4826138976     -2.5912706623     -2.0016083765
C     2.1586992566     -2.8481538099     -0.7316477934
C     1.4256697871     -1.2524629864     -2.4997988742
C     -1.021602764     -1.5626125451     -2.8114624389
C     0.1225523583     -0.7234010326     -2.9262661535
C     -2.7011076231     -2.0576167584     -1.2343024103
C     -2.2424254262     -1.0604954988     -2.2041183907
C     -3.1443064985     -1.6259019079     0.0672254141
C     -1.4771093115     -3.2022779833     1.0395839423
C     -2.4989166043     -2.2274680143     1.2086148124
C     1.0051983281     -3.0592812904     1.516855158
C     -0.34801599     -2.8645725701     1.9250867899
C     1.965373285     -2.1518790454     2.0343187327
C     3.0632973495     -1.9628311092     -0.2162532808
C     3.1099286617     -1.7587462964     1.2090670161
C     2.4419541309     -0.3121301665     -1.9900685975
C     3.2618407427     -0.6736832546     -0.8694956473
C     2.2424254262     1.0604954988     -2.2041183907
C     -0.1225523583     0.7234010326     -2.9262661535
C     1.021602764     1.5626125451     -2.8114624389
C     -2.4419541309     0.3121301665     -1.9900685975
C     -1.4256697871     1.2524629864     -2.4997988742
C     -3.5578513946     -0.2727625103     0.1708714261
C     -3.2618407427     0.6736832546     -0.8694956473
C     -3.4394132754     0.4275379942     1.4416417195
C     -2.0859214235     -1.3707210756     2.3261170401
C     -0.7169884197     -1.7193748782     2.6934784351
C     -2.5299001491     -0.0815365655     2.4374315659
C     1.5851596355     -0.9992399715     2.7888593463
C     0.22081608     -0.7076692532     3.0598754665
C     3.4394132754     -0.4275379942     1.4416417195
C     3.5578513946     0.2727625103     0.1708714261
C     2.5299001491     0.0815365655     2.4374315659
C     2.7011076231     2.0576167584     -1.2343024103
C     3.1443064985     1.6259019079     0.0672254141
C     0.8900577135     2.9218153784     -2.4014579501
C     1.8931504507     3.1971000962     -1.3610151799
C     -1.4826138976     2.5912706623     -2.0016083765
C     -0.3302627333     3.4025229361     -1.9851549766
C     -3.0632973495     1.9628311092     -0.2162532808
C     -3.1099286617     1.7587462964     1.2090670161
C     -2.1586992566     2.8481538099     -0.7316477934
C     -1.5851596355     0.9992399715     2.7888593463
C     -0.22081608     0.7076692532     3.0598754665
C     -1.965373285     2.1518790454     2.0343187327
C     2.0859214235     1.3707210756     2.3261170401
C     2.4989166043     2.2274680143     1.2086148124
C     0.7169884197     1.7193748782     2.6934784351
C     1.2274028085     3.7671117764     -0.2346525117
C     -0.1488509257     3.9724186748     -0.6171351612
C     -1.2181075438     3.5777442359     0.1654108776
C     -1.0051983281     3.0592812904     1.516855158
C     1.4771093115     3.2022779833     1.0395839423
C     0.34801599     2.8645725701     1.9250867899


