60

 C     -1.2805570264     4.2184951569     -0.5631902766
C     -2.325313476     3.3998585661     -0.0079810329
C     -1.8679928155     2.8897044735     1.225869968
C     -0.1654143462     4.2233886965     0.3420921295
C     -0.4862780301     3.3991112515     1.4482622033
C     1.0373644159     3.9321305464     -0.398523228
C     -0.8317557703     3.5605581558     -1.7228788942
C     0.6057219249     3.3793604873     -1.6844133535
C     -2.7124658645     2.4246329648     -1.0034049793
C     -1.6958390454     2.4493084663     -2.0415887277
C     -3.2291920373     1.221395608     -0.5601883141
C     -2.2525604808     1.5828566466     1.6809652011
C     -3.1516762167     0.8650758164     0.8441625568
C     -1.3405033592     0.818398957     2.54805312
C     0.4976966562     2.5420941677     2.052069642
C     0.0650838113     1.2651819938     2.6832223456
C     2.0751249348     3.3211044783     0.2822105081
C     1.8333538343     2.6628884946     1.5716345258
C     2.900506723     2.4387467705     -0.4587677
C     1.1703365828     2.180623469     -2.1847435627
C     2.4555555974     1.8189709198     -1.6361568457
C     -1.1590919618     1.228484724     -2.5231139868
C     0.2987640097     1.0875535329     -2.6769913164
C     -2.990713487     0.0271533772     -1.3004253625
C     -1.9733545948     0.0229477583     -2.297165602
C     -3.2584745371     -0.5671037181     0.9207730494
C     -3.1823450139     -1.1212058789     -0.4083723259
C     -1.6476488305     -0.5434310107     2.7738647112
C     -2.6587423835     -1.2415613782     1.9780216562
C     -0.6091158939     -1.5279799792     3.0500273927
C     1.0473745307     0.2796896266     2.9261361219
C     0.7240330796     -1.1236647462     3.0119716114
C     2.7499554669     1.5279782121     1.6553015383
C     3.4431063869     1.4109369329     0.4266707372
C     2.3631488287     0.3616958056     2.3195879037
C     2.8857699502     0.4307701389     -1.5658601347
C     3.4970697764     0.1872286413     -0.2507639264
C     0.8507869506     -0.2390340177     -2.8130116651
C     2.1825799826     -0.5753606321     -2.2131972231
C     -1.4085334092     -1.2309327304     -2.5955669374
C     -0.0531409174     -1.3375197597     -2.9893602394
C     -2.5723273775     -2.3692914774     -0.6550772102
C     -1.7976548368     -2.4698973988     -1.8704348999
C     -2.2240933544     -2.581800092     1.7673662968
C     -0.9592682409     -2.7654859576     2.4576955463
C     -2.12008339     -3.1467561137     0.4827423856
C     -0.0679010224     -3.4795565631     1.6219035778
C     -0.8348767244     -3.8682625894     0.4300290092
C     1.687784259     -1.8840982978     2.2641942834
C     2.6859685096     -0.9269562616     1.784152389
C     3.2102867905     -1.0278481089     0.4578859726
C     1.2995367552     -3.0275454678     1.5076845627
C     2.4137250262     -1.9119743694     -1.6974865389
C     2.7789814431     -2.1167164189     -0.3363346358
C     1.9361761505     -3.208464935     0.2155689113
C     0.3348234632     -2.697383137     -2.6640517982
C     -0.7512650589     -3.3800888689     -1.9730338761
C     -0.1831786365     -4.0143641529     -0.7806047945
C     1.5129791751     -2.9671404163     -2.0187742945
C     1.2477631239     -3.8069001588     -0.8386563743


