60

 C     2.293212396     3.8489989152     0.254940647
C     3.057699258     2.716860244     0.0328765654
C     2.6852306736     2.0832496823     -1.2341655814
C     1.361151749     3.9499672121     -0.8335383013
C     1.5453625835     2.7829073375     -1.7135905574
C     0.0793729594     4.072888649     -0.2833976848
C     1.4762775942     3.5151918786     1.4412090852
C     0.1277010347     3.7374482172     1.1671524779
C     3.0440258782     1.8647177361     1.2141630461
C     1.8855081329     2.2576166286     2.0095227681
C     3.3119112331     0.5559728936     1.0192945903
C     2.8289477013     0.6855816884     -1.3890768744
C     3.4853315293     -0.0087443131     -0.3220995983
C     1.8207709704     -0.0547651099     -2.1623229162
C     0.416853642     2.0361312159     -2.2633955373
C     0.5123664693     0.5890995927     -2.4504165783
C     -1.0212556932     3.6521300623     -1.0451828906
C     -0.863533191     2.609453967     -2.0842186144
C     -2.1895771212     3.3990019648     -0.3634711005
C     -0.8783287636     2.8728032025     1.7091716494
C     -2.1554229514     2.9974583704     1.063790763
C     0.9347574799     1.2626899784     2.4003655037
C     -0.4911745402     1.5836546388     2.3113691429
C     2.6456792235     -0.4536797709     1.815091025
C     1.3751483848     -0.1532345965     2.3833761395
C     3.3622392531     -1.40802954     -0.1851611238
C     2.9273424151     -1.7066700502     1.1906945284
C     1.9129923336     -1.4464535584     -2.1483811611
C     2.8049296031     -2.1498889049     -1.2348167141
C     0.7321731309     -2.2929685758     -2.3389185096
C     -0.6932032957     -0.221456635     -2.4766518093
C     -0.5837048932     -1.6897542159     -2.384544475
C     -2.0563443285     1.8091190824     -2.0652912194
C     -2.9674893217     2.4254505083     -1.1093753613
C     -1.9936299409     0.3978357804     -2.1793116081
C     -3.0773552186     1.9739480157     1.1779029168
C     -3.6129499146     1.6380618902     -0.1875211355
C     -1.4631506648     0.4844829178     2.3356034225
C     -2.768502898     0.7482120204     1.8011702632
C     0.4086850986     -1.2529087305     2.4508009444
C     -1.0350260753     -0.9295766013     2.4075135034
C     2.1169167027     -2.8005995716     1.4429485619
C     0.8404309212     -2.5650181046     2.0944711991
C     2.1967531044     -3.3969112094     -0.9277934445
C     0.9547657909     -3.5291075059     -1.708719306
C     1.9140542569     -3.7597445917     0.3898107484
C     -0.0968311658     -3.5438004422     1.5271439481
C     -0.0558540277     -4.1116755685     -0.8835372084
C     0.5229584677     -4.2009705097     0.4457855904
C     -1.6430022448     -2.461734624     -1.8421516554
C     -1.3581286619     -3.6322792466     -1.0119545427
C     -2.9907432063     -0.3893763224     -1.4247627161
C     -3.6769377707     0.2515794604     -0.3223165526
C     -3.4382195204     -0.2841699867     1.0138447238
C     -2.7947345164     -1.7753947198     -1.2645255382
C     -1.9358704053     -1.9497272499     1.9763488048
C     -1.4544257911     -3.2025634296     1.4275005991
C     -2.1233270523     -3.4432046473     0.1863615585
C     -3.091323416     -1.5884170629     1.1650435796
C     -3.0715035803     -2.3996883558     -0.0146583794


