60

 C     0.6709082481     4.4010259407     1.2885573281
C     0.6934624977     4.5211178158     -0.1782031446
C     -0.609882847     4.3808149241     -0.6408759946
C     -0.6386885341     3.9688692293     1.6774447701
C     -1.4608060808     4.0464352776     0.5371368237
C     -0.5185537827     2.6732232311     2.3601555898
C     1.5672082124     3.3753263242     1.6118349497
C     0.8826212813     2.3419060211     2.3791114114
C     1.7221874977     3.6428259035     -0.7017561551
C     2.321444681     2.9638401249     0.4523460934
C     1.4412684857     2.8596287718     -1.8304437966
C     -0.9344505344     3.431017156     -1.6670677361
C     0.0845264637     2.7389409699     -2.3360738376
C     -2.2773703852     2.9646783251     0.184834214
C     -2.0710720686     2.6511598012     -1.2283097282
C     -1.4494599164     1.6345315801     2.1587798984
C     -2.468154593     1.8642111165     1.1110009074
C     -1.0431074922     0.2573684249     2.43217912
C     1.3204811786     1.0167698952     2.3205507409
C     0.3617880114     -0.0495761034     2.5661727033
C     2.7878493577     1.6455199861     0.3755723438
C     2.5034487615     0.7323421402     1.4981183083
C     2.0663750826     1.5695688173     -1.9729481361
C     2.8808989779     1.032138764     -0.949111747
C     -0.103530593     1.3508148899     -2.7343789134
C     1.1538612931     0.6735496733     -2.6451448048
C     -2.3215094635     1.351144184     -1.7068123067
C     -1.3120563315     0.6330421322     -2.4918970775
C     -3.1203231056     0.7710098046     0.578188956
C     -3.1837992291     0.576176786     -0.8712269359
C     -1.9838026493     -0.8300425219     2.1005153069
C     -3.0690944709     -0.5368723896     1.2048366037
C     -1.5465320296     -2.1774515062     2.1350303664
C     0.831379071     -1.4352695297     2.4728069524
C     -0.1408155801     -2.5055473222     2.3946196321
C     2.8934990627     -0.5954522805     1.3706477566
C     2.1192381969     -1.6908411503     1.9471670162
C     3.1669003905     -0.3517123048     -1.0357557431
C     3.4428196525     -1.0720160516     0.1350355897
C     1.2534681636     -0.7481250076     -2.543156126
C     2.4181496658     -1.2504631921     -1.9171267874
C     -1.2787917544     -0.8338041279     -2.4822899586
C     0.0116845261     -1.5471853435     -2.5511923711
C     -3.2981141141     -0.7843143533     -1.0785004889
C     -3.4136791201     -1.4774578457     0.2074304095
C     -2.3795513307     -1.520880049     -1.8831441118
C     -2.0511565862     -3.1759997517     1.2118669379
C     -2.8103945749     -2.7344970845     0.1117049145
C     -2.2170315776     -2.820696071     -1.2484124036
C     0.1674470296     -3.7337408711     1.7839364857
C     -0.9872587955     -4.1035633939     0.9707583866
C     2.3538301084     -2.8884162309     1.1266773933
C     3.0375003769     -2.4400028223     -0.039600058
C     2.4333581393     -2.5672259925     -1.3267782405
C     1.3629540808     -3.8682103831     0.9898231148
C     0.0849653777     -2.8855806844     -2.0905087837
C     -1.0473060734     -3.529131814     -1.429181126
C     -0.5262125019     -4.3120138636     -0.3273581674
C     1.3019116997     -3.3969954624     -1.4467540888
C     0.9250702435     -4.2059129059     -0.3408325558


