60

 C     -1.7944440272     -4.2693382321     -0.1707311251
C     -0.4964659812     -4.5196036779     -0.7476500897
C     0.4561379797     -4.5231597077     0.2943007486
C     -1.6114276396     -3.8832630561     1.2213074475
C     -0.2538840706     -4.0666500427     1.522680212
C     -2.1610583545     -2.5726286279     1.4172379894
C     -2.3491075346     -3.1619176415     -0.8312494829
C     -2.7186413222     -2.1570459549     0.1238572134
C     -0.3047782508     -3.6106893978     -1.8632280779
C     -1.501014457     -2.7491085795     -1.9316042817
C     0.9406004786     -3.0060570865     -2.0298413877
C     1.6532409105     -3.7801997899     0.1969806382
C     1.9789479346     -3.1326355255     -1.0238710631
C     0.5148610913     -3.0564061919     2.1532189438
C     1.7772153473     -2.9807796894     1.4244531068
C     -1.4818079474     -1.591697516     2.1895532547
C     -0.096503995     -1.8381866452     2.5944324184
C     -1.9355077216     -0.2193049969     2.0332779702
C     -2.7541048393     -0.8163563515     -0.25423296
C     -2.694075707     0.1575721956     0.8298461031
C     -1.4342866253     -1.3939793329     -2.2865955063
C     -2.264573431     -0.4218964174     -1.5650132715
C     1.0167574364     -1.6578630841     -2.5772800959
C     -0.164216327     -0.8897886175     -2.8159404211
C     2.6842900547     -1.8703118312     -1.0064647708
C     2.1774315268     -1.003951841     -2.0689096068
C     2.5118997518     -1.8108327805     1.4267349261
C     3.0677718752     -1.2736747428     0.1938687583
C     0.7637249661     -0.674348078     2.7815116007
C     2.0704141677     -0.6891790878     2.2028035981
C     -1.2273026839     0.8124670385     2.6785637661
C     0.1779874542     0.6047422856     2.9555913091
C     -1.4256030295     2.2019425798     2.3617100775
C     -2.8394753642     1.4984052998     0.5043447293
C     -2.331840946     2.5509158103     1.3535043869
C     -2.1369020819     0.9870895676     -1.8445960414
C     -2.6697383969     1.933723983     -0.8930749313
C     0.0131178633     0.4944467093     -2.952120494
C     -1.0554275273     1.4480197145     -2.6546427869
C     2.2741461002     0.4084399973     -2.0053292563
C     1.257820842     1.1389177121     -2.6831020082
C     3.1019436013     0.1593375467     0.3165262226
C     2.6134325953     0.5168381549     1.6164607254
C     2.8575245363     1.0284052067     -0.8065321628
C     0.8598929156     1.8407697174     2.656322054
C     -0.1296433028     2.8716458177     2.4113922166
C     2.0557211656     1.7914146725     1.8741773023
C     0.1484160689     3.9567762873     1.5536536431
C     -2.051502808     3.6853698769     0.512528211
C     -2.2470204804     3.269403759     -0.893428678
C     -0.8779129852     4.3991815334     0.6264802299
C     -0.4791177269     2.7411473293     -2.472098329
C     0.9788215943     2.5250030026     -2.3868878735
C     -1.1061477686     3.7019198185     -1.6434942788
C     -0.2829144895     4.4706854302     -0.7373938306
C     2.5362843071     2.3633779393     -0.5100831694
C     2.2367463553     2.7936312166     0.8560546019
C     1.3667013967     3.8958720597     0.7932927068
C     1.7176035092     3.184653714     -1.4105311683
C     1.0669936964     4.188738848     -0.6107399628


