60

 C     1.4314070632     -4.3587957452     0.6830381551
C     0.6775418644     -3.8493477088     1.8442937375
C     -0.6678225842     -3.9556267218     1.5290162542
C     0.4886400599     -4.5527787652     -0.4168307959
C     -0.7974393349     -4.4368092735     0.1062072536
C     0.8714894638     -3.6691127498     -1.5101725101
C     2.3177660761     -3.3719099045     0.3085426171
C     2.0585725401     -2.9512052662     -1.083930923
C     1.1931808924     -2.5539880238     2.2126523544
C     2.3258899912     -2.3300126914     1.3245296654
C     0.3341386728     -1.4400336587     2.4721329738
C     -1.5526813693     -2.8649476688     1.7039915336
C     -1.0990464815     -1.612314665     2.2604529104
C     -1.7914782266     -3.6443090117     -0.5241436519
C     -2.4045298056     -2.8313247275     0.5225257641
C     -0.1155889038     -2.9341611559     -2.1824038057
C     -1.4981819102     -2.9859595708     -1.7491795892
C     0.147171632     -1.5659782669     -2.6090030233
C     2.2808211787     -1.6197836203     -1.4216496296
C     1.3409883672     -0.8977882454     -2.2940413671
C     2.7314265745     -1.0652786129     0.9854246896
C     2.9861491373     -0.793016722     -0.4387900917
C     0.911178086     -0.0873499044     2.3779925826
C     2.2350711224     0.0418707898     1.7938458537
C     0.0793529588     1.0978188302     2.4506498846
C     -1.9063586101     -0.427991456     2.0297416188
C     -1.36872623     0.9172056598     2.3076590733
C     -3.0497863488     -1.6659514207     0.2059534374
C     -2.9738101958     -0.5435479808     1.0930936344
C     -2.0881173869     -1.697977123     -2.0372382373
C     -1.0884309697     -0.8164231113     -2.6130490834
C     -2.9987840901     -1.1234680915     -1.1493295357
C     -1.1336582472     0.5936534364     -2.4697751654
C     1.3589510711     0.5647187457     -2.3675111852
C     0.1259350937     1.3363524609     -2.4542337083
C     3.276716025     0.4966732292     -0.8004988379
C     2.5317042966     1.1990976142     -1.8674297353
C     2.7517464869     1.3057491265     1.4872251979
C     3.4758811767     1.4779748124     0.2256105671
C     0.6643140183     2.4243073649     2.1524509638
C     2.008544363     2.4940606987     1.692536204
C     -0.1876339909     3.5061847115     1.7243718257
C     -2.1545590295     2.0308179116     1.9028054446
C     -1.5815126167     3.3376180821     1.6956914501
C     -3.3644899542     0.6056284558     0.32098682
C     -3.1643920862     0.2896311803     -1.0832619098
C     -2.3220145628     1.1741154208     -1.8304650817
C     -3.1297674456     1.8539716638     0.8220146038
C     -2.1488705037     3.9532998396     0.4953885039
C     -2.2687230483     2.5240548644     -1.3904065434
C     -2.8628497377     2.8936848434     -0.1228285989
C     0.1373084478     2.73882549     -2.0100447589
C     0.1369603387     4.2002630544     0.4594594452
C     -1.0697072418     3.3085619628     -1.4938137223
C     -1.0456722203     4.2262651468     -0.3343100981
C     2.5623354899     2.5793249173     -1.5479265455
C     3.3038529488     2.7750907157     -0.2781161578
C     2.3907818816     3.413767841     0.5838748417
C     1.3608096787     3.3151869106     -1.5138078357
C     1.3380058349     3.9714164827     -0.1799678335


