60

 C     -1.4270084045     -4.3702120992     -0.582312464
C     -0.2211972344     -4.1441004199     -1.3740418842
C     0.8752493654     -4.2263051289     -0.5181506322
C     -1.0306514112     -4.2298370766     0.8297150133
C     0.3507741359     -4.2185578436     0.8963148994
C     -1.7236646921     -3.1126451858     1.4184973168
C     -2.2737460442     -3.3092466033     -0.8409807192
C     -2.6206056964     -2.6201967996     0.3924366286
C     -0.3763185339     -2.9325640888     -2.166296197
C     -1.7094406908     -2.4585812631     -1.8970210826
C     0.690541228     -1.9826334365     -2.3023118302
C     1.9312777029     -3.3145731877     -0.5973210028
C     1.9434741973     -2.28114339     -1.607420278
C     1.0818047418     -3.224025509     1.6047771436
C     2.2273450308     -2.9016093593     0.780546015
C     -1.0236596832     -2.1421817266     2.2206923053
C     0.4342397029     -2.1481558606     2.3059279877
C     -1.6665057503     -0.8835798896     2.3457657505
C     -3.0200735032     -1.2852285971     0.3338719992
C     -2.7620659918     -0.5058215987     1.4991502248
C     -2.0347147868     -1.1064353025     -1.9587130017
C     -2.9728431297     -0.5747203388     -0.9512877698
C     0.3473536325     -0.5873556501     -2.582492308
C     -1.0480145336     -0.1979750706     -2.5439849907
C     1.3551078756     0.4800008189     -2.4267196745
C     2.8418271675     -1.2111989843     -1.3746392637
C     2.5971240824     0.1195876445     -1.8563937788
C     2.9571640506     -1.7736476279     1.0262180476
C     3.5024128302     -1.0920947047     -0.0995753816
C     1.1616551011     -0.863334618     2.4796037146
C     2.4715126929     -0.7563676275     1.9501455943
C     -0.9736843761     0.3240202128     2.7324890372
C     0.4389496424     0.3998718716     2.7157999074
C     -2.8603550292     0.9219757207     1.4819562096
C     -1.8006829545     1.4445485004     2.3415371005
C     -3.1831817274     0.8008509007     -0.9338883453
C     -3.2008261799     1.5838305098     0.3123191902
C     -1.3938840326     1.179016778     -2.5741473133
C     -2.5498529162     1.6240335035     -1.9057548842
C     0.9559024575     1.9096383812     -2.3509423862
C     -0.3990347411     2.2484369938     -2.494199894
C     1.758291994     2.8408092231     -1.5593130946
C     3.2642382139     1.0390256237     -0.9094027219
C     3.6527965761     0.270732409     0.2307405708
C     2.9940257657     0.5122358661     1.4835377887
C     2.7900735351     2.2909727128     -0.6904871877
C     1.0449608671     1.7164360955     2.4106186852
C     2.3219651084     1.745858343     1.6990192421
C     2.5327507253     2.7520021686     0.6822017265
C     -1.2539202661     2.6794670525     2.1124374241
C     0.1807586808     2.8538155079     2.2508101769
C     -2.6296368887     2.8968575376     0.0379595984
C     -2.2790962001     2.9303628895     -1.340423621
C     -1.0033947494     3.3756394112     -1.77586471
C     -1.7410823824     3.4963721573     0.9787917538
C     1.1776101396     3.9101630115     -0.8708210515
C     1.6421517028     3.8221526409     0.5468595089
C     0.5228727852     3.9171962462     1.3561156406
C     -0.2239068578     4.142054416     -0.8771067666
C     -0.643162444     4.2263641401     0.5051581338


