60

 C     0.036596829     4.4488395901     0.4525573252
C     -1.2164521957     4.0086962331     0.8095947304
C     -1.9439397784     3.5741977653     -0.3972190799
C     0.142037024     4.2503575124     -1.0244388837
C     -1.0449878106     3.573507026     -1.5047919828
C     1.3641864229     3.6928463375     -1.2663619345
C     1.2166002472     3.8744332224     1.0760638669
C     2.1032500824     3.5125010782     0.0179618341
C     1.0485517048     2.9425279359     2.1183868204
C     -1.4177227924     3.0041511172     1.8313769376
C     -0.2995890819     2.5466918144     2.5244501202
C     -2.6855256956     2.4352843999     -0.0569833805
C     -2.3906468138     2.0304564083     1.3173333386
C     -2.8277173157     1.4384865119     -1.0190176475
C     -0.9267401359     2.3789557764     -2.3200357472
C     -1.9707214663     1.4249601249     -2.1801743798
C     1.5282922832     2.5074066508     -2.0632842093
C     0.4105530222     1.826525633     -2.6373397419
C     2.7434301586     2.2749217435     -0.0307377968
C     2.550755529     1.7519421536     -1.3921084788
C     1.841874194     1.7315475526     2.1516086402
C     2.6749713187     1.3367687199     1.0726962131
C     -0.2673228101     1.167646674     2.937804238
C     1.0789639532     0.6988373418     2.8342929648
C     -2.3599908946     0.6688139976     1.6700135565
C     -1.3407296404     0.2674151152     2.6484234206
C     -3.0736314578     0.0882659212     -0.6202736129
C     -2.8373652393     -0.3496793193     0.7033931911
C     -1.8413252865     0.0437748596     -2.5926266784
C     -2.6922369944     -0.7495878542     -1.7361138557
C     0.5644367675     0.3933937032     -2.926381373
C     -0.604821626     -0.4893699138     -3.040104608
C     2.6610194296     0.4127737819     -1.6145735263
C     1.7722743872     -0.2453596787     -2.5274384397
C     2.8666052143     -0.1017096314     0.811196084
C     3.0161976361     -0.5049224257     -0.5401738554
C     1.376733627     -0.6743744795     2.7405986361
C     2.3669084138     -1.1165550951     1.747765373
C     -1.0531797355     -1.0906559411     2.8262659992
C     0.2861904898     -1.5444549094     3.0653363095
C     -2.5292113342     -1.7800981982     0.9097430699
C     -1.7611031625     -2.1504736379     2.0832645699
C     -2.4699755522     -2.0966855298     -1.5541028007
C     -2.4434934977     -2.6602931351     -0.202209895
C     -0.4441511979     -1.9189601062     -2.9232985212
C     -1.4442443288     -2.7051561749     -2.3156071826
C     1.8643106162     -1.6614779571     -2.2287362458
C     2.6585115749     -1.8111754575     -0.9969829338
C     0.8277462287     -2.5206458188     -2.4995561878
C     2.2968054175     -2.4732786846     1.3136557866
C     2.3761077049     -2.8144246062     -0.0913615654
C     0.3230847227     -2.918976089     2.6945767474
C     -0.9750359911     -3.3034400019     2.1089780936
C     1.3186600631     -3.3788829425     1.8690411141
C     -1.4994226766     -3.7859989134     -0.2221078454
C     -0.8371566214     -3.743458359     -1.4887401687
C     0.566870396     -3.6529703444     -1.6051225936
C     1.3420133621     -3.8181273864     -0.4178565056
C     -0.7280496176     -4.075471216     0.9201694588
C     0.7019518305     -4.1702629946     0.7793134178


