60

 C     -2.1437519323     -2.1437519323     -2.4055719697
C     -2.5209379106     -0.7756072583     -2.6241584415
C     -3.0891986463     -0.2551627152     -1.3871442326
C     -2.4419466716     -2.4419466716     -1.0491293176
C     -3.0556783652     -1.3234111251     -0.4094659324
C     -1.3234111251     -3.0556783652     -0.4094659324
C     -0.7756072583     -2.5209379106     -2.6241584415
C     -0.2551627152     -3.0891986463     -1.3871442326
C     0.0538237718     -1.7169992225     -3.3999973446
C     -1.7169992225     0.0538237718     -3.3999973446
C     -0.4987285336     -0.4987285336     -3.9468930471
C     -1.4152179232     1.4152179232     -2.9569769677
C     -2.8686915858     1.0823414076     -0.9838377155
C     -1.9339896907     1.9339896907     -1.7504848719
C     -3.0556783652     1.3234111251     0.4094659324
C     -2.8686915858     -1.0823414076     0.9838377155
C     -3.0891986463     0.2551627152     1.3871442326
C     -1.0823414076     -2.8686915858     0.9838377155
C     -1.9339896907     -1.9339896907     1.7504848719
C     0.2551627152     -3.0891986463     1.3871442326
C     1.0823414076     -2.8686915858     -0.9838377155
C     1.3234111251     -3.0556783652     0.4094659324
C     1.4152179232     -1.4152179232     -2.9569769677
C     1.9339896907     -1.9339896907     -1.7504848719
C     0.4987285336     0.4987285336     -3.9468930471
C     -0.0538237718     1.7169992225     -3.3999973446
C     1.7169992225     -0.0538237718     -3.3999973446
C     0.7756072583     2.5209379106     -2.6241584415
C     -1.0823414076     2.8686915858     -0.9838377155
C     0.2551627152     3.0891986463     -1.3871442326
C     -2.4419466716     2.4419466716     1.0491293176
C     -1.3234111251     3.0556783652     0.4094659324
C     -2.5209379106     0.7756072583     2.6241584415
C     -2.1437519323     2.1437519323     2.4055719697
C     -1.4152179232     -1.4152179232     2.9569769677
C     -1.7169992225     -0.0538237718     3.3999973446
C     0.7756072583     -2.5209379106     2.6241584415
C     -0.0538237718     -1.7169992225     3.3999973446
C     2.4419466716     -2.4419466716     1.0491293176
C     2.1437519323     -2.1437519323     2.4055719697
C     2.8686915858     -1.0823414076     -0.9838377155
C     3.0556783652     -1.3234111251     0.4094659324
C     2.5209379106     0.7756072583     -2.6241584415
C     2.1437519323     2.1437519323     -2.4055719697
C     3.0891986463     0.2551627152     -1.3871442326
C     1.3234111251     3.0556783652     -0.4094659324
C     2.4419466716     2.4419466716     -1.0491293176
C     3.0556783652     1.3234111251     -0.4094659324
C     -0.2551627152     3.0891986463     1.3871442326
C     -0.7756072583     2.5209379106     2.6241584415
C     1.0823414076     2.8686915858     0.9838377155
C     -0.4987285336     0.4987285336     3.9468930471
C     0.4987285336     -0.4987285336     3.9468930471
C     0.0538237718     1.7169992225     3.3999973446
C     2.5209379106     -0.7756072583     2.6241584415
C     3.0891986463     -0.2551627152     1.3871442326
C     2.8686915858     1.0823414076     0.9838377155
C     1.9339896907     1.9339896907     1.7504848719
C     1.7169992225     0.0538237718     3.3999973446
C     1.4152179232     1.4152179232     2.9569769677


