60

 C     -1.442308855     -4.5193670153     0.3772428103
C     -0.525445245     -4.7436328185     -0.676484586
C     0.7586461268     -4.4279694946     -0.2184946589
C     -0.6831369573     -3.9711576239     1.5269850532
C     0.6956607785     -3.9371507251     1.1831473775
C     -1.2942986182     -2.7737594635     1.9669729332
C     -2.3187167757     -3.5011695358     -0.0253345572
C     -2.4028581236     -2.5096733058     1.0174334192
C     -0.8215533489     -3.774315385     -1.7641382508
C     -1.9723367003     -3.0387207023     -1.3835041553
C     1.3974782889     -3.5900454755     -1.2088145306
C     0.3532715421     -3.0689952712     -2.1289227309
C     2.368933031     -2.7468412598     -0.7907825558
C     1.5014297172     -2.8332746569     1.5704879415
C     2.5859055779     -2.5099461717     0.6615198124
C     -0.5346980271     -1.6626186583     2.4193307577
C     0.9205748219     -1.7089350279     2.3126409931
C     -1.2284708618     -0.3734016523     2.4647810703
C     -2.7652227038     -1.2203616097     0.7005224859
C     -2.4285289622     -0.1660057866     1.6610210472
C     -2.0372916495     -1.6620061268     -1.6552742534
C     -2.825999435     -0.8564769023     -0.7284972595
C     0.3254756795     -1.6696995254     -2.4221802463
C     -0.9473701163     -0.9785161566     -2.3389556126
C     2.6072032957     -1.4846056652     -1.4805029029
C     1.5535810986     -0.8682057446     -2.2276277857
C     3.2399061897     -1.3071326988     0.7466683403
C     3.3965675343     -0.7166489708     -0.5972160344
C     1.6521814538     -0.4393011678     2.400233862
C     2.852296571     -0.25852316     1.6269068692
C     -0.4899347211     0.7765328092     2.8023295342
C     0.9471555646     0.7525767915     2.7160541581
C     -0.939183801     2.1192108205     2.4907965059
C     -2.8399317597     1.1385787408     1.3468510918
C     -2.1176843004     2.3107233226     1.7878216108
C     -2.9923371453     0.4683779435     -1.042579889
C     -3.2667530535     1.4216963099     -0.0036563945
C     -0.9935976002     0.4722725819     -2.4718579622
C     -2.1652320604     1.1361121789     -2.0353402954
C     1.507860091     0.579201752     -2.2576646281
C     0.248897809     1.2588888159     -2.5939166795
C     3.2657603955     0.6475495803     -0.4945289391
C     3.071507592     0.9774049219     0.9310215715
C     2.4867607221     1.3397133933     -1.4773799063
C     1.3765463344     2.0635637182     2.2686993142
C     0.2301131386     2.9434594587     2.2079274483
C     2.4043436515     2.1656456297     1.2763789435
C     0.1684319218     3.9702389727     1.2587139932
C     -2.157952591     3.3212807282     0.7134992251
C     -2.833929432     2.6919303887     -0.4006920097
C     -2.1548716996     2.5407616237     -1.6839603945
C     -1.0626152712     4.1303667517     0.4597139592
C     0.1763428101     2.6680102951     -2.4553263944
C     -1.0440486444     3.3146484315     -1.9455200781
C     -0.6409096412     4.293862494     -0.9406623849
C     2.2612501571     2.7004000122     -1.1886988428
C     2.2648089742     3.1623867028     0.2465321757
C     1.2867315329     4.151049938     0.3556441599
C     1.279896023     3.4127775111     -1.883689227
C     0.741699976     4.3892349393     -0.9756743184


