60

 C     -0.6067535283     -4.7482996217     0.3446751297
C     0.3681151668     -4.6723070326     -0.6247098928
C     1.5847895029     -4.1344070004     -0.096834473
C     -0.0601386671     -4.1022545598     1.5554724491
C     1.2978377665     -3.674415371     1.2592745849
C     -0.9430377647     -3.0711009244     1.8849307663
C     -1.6979017979     -3.9292721551     -0.1338949744
C     -2.0466425665     -3.039783673     0.8778008776
C     -0.0722181578     -3.8405806762     -1.7815138971
C     -1.3762921331     -3.3672730456     -1.4797966625
C     2.0358395894     -3.1884424544     -1.0513531051
C     0.9483265976     -2.9077111027     -2.0339130046
C     2.7541527529     -2.117718067     -0.6007747194
C     1.7744881583     -2.3818445629     1.6705160512
C     2.7377395393     -1.7763186519     0.8154489961
C     -0.5088139269     -1.7996813309     2.4234959389
C     0.8882333299     -1.4288842058     2.3780362768
C     -1.4939185285     -0.7827703262     2.4248620426
C     -2.6870776822     -1.8243249703     0.5571883852
C     -2.6682617413     -0.8269938488     1.5451821622
C     -1.7109978295     -2.0267881621     -1.7483461212
C     -2.6919694602     -1.397587393     -0.8544079166
C     0.650681899     -1.5417525869     -2.3833007375
C     -0.7350485224     -1.1313786595     -2.3842296766
C     2.7720178127     -0.8806713972     -1.3274565466
C     1.6828280241     -0.5201110205     -2.1743409104
C     3.0787007044     -0.401848939     0.9174276905
C     3.2950175837     0.0918276115     -0.4255119994
C     1.2435437623     -0.0176522303     2.5022999263
C     2.4825205209     0.4652408599     1.8839232171
C     -1.1646845042     0.5786416769     2.620588898
C     0.1904594173     0.9752528782     2.7186219257
C     -3.0420430332     0.5102201191     1.2591929613
C     -2.1801315735     1.4099171355     1.9614054329
C     -3.0616343446     -0.1028597767     -1.1293798524
C     -3.451502039     0.8396018008     -0.0659606639
C     -1.0708025526     0.2756382555     -2.561116329
C     -2.3854834191     0.6717773693     -2.1675779211
C     1.3609662662     0.9065088181     -2.3233921976
C     -0.0173674993     1.3042960746     -2.6236560878
C     3.1746673929     1.4391226141     -0.7049250551
C     2.2350807493     1.8679741072     -1.7351406785
C     2.6844767378     1.8628661482     1.6613306086
C     3.1455335013     2.3298704139     0.3834296982
C     0.4313978611     2.3782876038     2.4509077061
C     1.6963769847     2.8229061014     2.0873917234
C     -1.8804158683     2.7072863467     1.4529450521
C     -0.5887255059     3.2211431437     1.7585570972
C     -3.2617132367     2.1309487464     -0.5373940814
C     -2.6785482588     2.0281872759     -1.8952489348
C     -2.4967701932     3.1047819346     0.1894623369
C     -0.3811774037     2.6737110804     -2.3801313081
C     -1.721011782     3.0065091142     -2.0245062693
C     -1.6855826398     3.7896694163     -0.7737576768
C     1.7729041209     3.1818035813     -1.3285054837
C     2.3291039523     3.4671861393     -0.0133506529
C     1.5197997596     3.8430635828     1.0464651331
C     0.1200774219     4.0557921884     0.8344374768
C     0.4718559559     3.5544031858     -1.5911321146
C     -0.3608667718     4.140598622     -0.5097107002


