60

 C     1.5816491655     4.2868383532     -0.9425500076
C     0.2815351372     4.6363436947     -0.4834954834
C     0.2438893305     4.4092224203     0.9203607836
C     2.303134007     3.6674092529     0.1859221638
C     1.513705509     3.782420205     1.3345198515
C     2.7605827854     2.3771467614     -0.1972605049
C     1.4305569902     3.2591903127     -1.8974080254
C     2.265871122     2.1239169388     -1.5539056736
C     -0.6978106865     3.9243498551     -1.3189396089
C     0.0402369839     3.0385711702     -2.2121148186
C     -1.8591994309     3.4485108155     -0.7402538738
C     -0.8135296731     3.6941743632     1.5274010784
C     -1.9817693238     3.4383106933     0.7466547569
C     1.1893846793     2.6276433869     2.1113093015
C     -0.2577961808     2.6000213172     2.3154704791
C     2.6835139745     1.2937349591     0.7020377962
C     1.8547551564     1.4041953636     1.8984956907
C     2.8784777985     -0.010743443     0.1215673504
C     1.9123164758     0.843921237     -1.9682121826
C     2.498088887     -0.2778109436     -1.2374475237
C     -0.4058667249     1.7191077997     -2.4856682192
C     0.6092338354     0.6586594394     -2.6052598152
C     -2.4598033818     2.2205821355     -1.2182876748
C     -1.7534272211     1.3236565286     -2.0876465913
C     -2.7625467132     2.3500983928     1.0893382518
C     -3.2238460976     1.6763520634     -0.1283962346
C     -0.9555477427     1.3654348515     2.4908271407
C     -2.2888037139     1.3181441482     1.9660476627
C     1.2278980961     0.1753020744     2.3963769044
C     -0.2128169549     0.1076472604     2.6200508404
C     2.8702705434     -1.0884302622     1.0420561329
C     1.9201237269     -1.0085202583     2.1692509184
C     2.9348713554     -2.4020347882     0.6148757655
C     2.1852078145     -1.642555389     -1.6240605752
C     2.5620055711     -2.728391564     -0.7487548815
C     0.1767082538     -0.654323508     -2.7573222672
C     1.0110593866     -1.8176731868     -2.4221856114
C     -2.1022134011     -0.092909501     -2.0386171065
C     -1.1956515458     -1.0326284059     -2.5904511924
C     -3.2736104696     0.3213015098     0.1011953678
C     -2.7803762033     0.0696926191     1.4759369506
C     -2.9319186789     -0.5943185146     -0.9457859463
C     -0.8672798633     -1.1751687357     2.4371157732
C     -2.1784709479     -1.1438178048     1.7824802783
C     1.3373939673     -2.3125930127     2.3183642786
C     2.1255482614     -3.2134548481     1.5101868914
C     -0.0919198525     -2.4297772349     2.3715796497
C     1.7733160959     -3.9080820862     -0.6948514962
C     1.5067480494     -4.1983301651     0.7450390389
C     0.1608918786     -2.9560050015     -2.2681009514
C     -1.2203319901     -2.4413488803     -2.2633304342
C     0.5423633219     -4.0115959292     -1.3934043266
C     -2.8114583434     -1.9211708647     -0.5299884354
C     -2.5499380336     -2.2307574157     0.8998316877
C     -2.1268665721     -2.9195585533     -1.3091790535
C     -0.6665889742     -3.6016429119     1.7265381701
C     0.1464250253     -4.4512056737     0.9181450141
C     -0.4532627699     -4.5037318182     -0.449436598
C     -1.8984133501     -3.4359879619     0.9693164651
C     -1.7066981447     -3.9573311605     -0.3959776211


