60

 C     3.7413758008     0.0226227914     -0.7343842616
C     3.1884554489     -1.1719888014     -1.2283791733
C     3.0452239568     -2.0789612899     -0.0785037411
C     3.7413758008     -0.0226227914     0.7343842616
C     3.3070533646     -1.3002201088     1.1441886996
C     3.1884554489     1.1719888014     1.2283791733
C     3.3070533646     1.3002201088     -1.1441886996
C     3.0452239568     2.0789612899     0.0785037411
C     2.4003474555     1.3713880252     -2.2087352254
C     2.1691647293     -1.1271753297     -2.2499715031
C     1.8451079074     0.1636612731     -2.7639147405
C     1.1271753297     -2.1691647293     -2.2499715031
C     2.0789612899     -3.0452239568     -0.0785037411
C     1.1719888014     -3.1884554489     -1.2283791733
C     1.3002201088     -3.3070533646     1.1441886996
C     2.4003474555     -1.3713880252     2.2087352254
C     1.3713880252     -2.4003474555     2.2087352254
C     2.1691647293     1.1271753297     2.2499715031
C     1.8451079074     -0.1636612731     2.7639147405
C     1.1271753297     2.1691647293     2.2499715031
C     2.0789612899     3.0452239568     0.0785037411
C     1.1719888014     3.1884554489     1.2283791733
C     1.3713880252     2.4003474555     -2.2087352254
C     1.3002201088     3.3070533646     -1.1441886996
C     0.4853488896     0.4853488896     -3.1732242936
C     0.1636612731     1.8451079074     -2.7639147405
C     -0.1636612731     -1.8451079074     -2.7639147405
C     -0.4853488896     -0.4853488896     -3.1732242936
C     -1.3713880252     -2.4003474555     -2.2087352254
C     -0.0226227914     -3.7413758008     -0.7343842616
C     0.0226227914     -3.7413758008     0.7343842616
C     -1.3002201088     -3.3070533646     -1.1441886996
C     -1.1719888014     -3.1884554489     1.2283791733
C     -2.0789612899     -3.0452239568     0.0785037411
C     0.1636612731     -1.8451079074     2.7639147405
C     0.4853488896     -0.4853488896     3.1732242936
C     -1.1271753297     -2.1691647293     2.2499715031
C     -0.1636612731     1.8451079074     2.7639147405
C     -0.4853488896     0.4853488896     3.1732242936
C     -1.3713880252     2.4003474555     2.2087352254
C     -0.0226227914     3.7413758008     0.7343842616
C     0.0226227914     3.7413758008     -0.7343842616
C     -1.3002201088     3.3070533646     1.1441886996
C     -1.1271753297     2.1691647293     -2.2499715031
C     -1.1719888014     3.1884554489     -1.2283791733
C     -2.0789612899     3.0452239568     -0.0785037411
C     -1.8451079074     -0.1636612731     -2.7639147405
C     -2.4003474555     -1.3713880252     -2.2087352254
C     -2.1691647293     1.1271753297     -2.2499715031
C     -3.0452239568     -2.0789612899     0.0785037411
C     -3.3070533646     -1.3002201088     -1.1441886996
C     -2.1691647293     -1.1271753297     2.2499715031
C     -1.8451079074     0.1636612731     2.7639147405
C     -2.4003474555     1.3713880252     2.2087352254
C     -3.1884554489     -1.1719888014     1.2283791733
C     -3.0452239568     2.0789612899     -0.0785037411
C     -3.1884554489     1.1719888014     -1.2283791733
C     -3.7413758008     -0.0226227914     -0.7343842616
C     -3.3070533646     1.3002201088     1.1441886996
C     -3.7413758008     0.0226227914     0.7343842616


