60

 C     1.1597816883     -4.1371706906     -0.1084137981
C     0.132443597     -4.1704100394     -0.9963889548
C     -1.1490836133     -4.1384424331     -0.2499617608
C     0.5581843081     -4.0432987394     1.2626632005
C     -0.8456726687     -3.8039837042     1.1333136677
C     1.35239975     -3.1787243697     1.9676741551
C     2.2119591676     -3.144716812     -0.2165249305
C     2.4556706303     -2.7169963796     1.0957310423
C     2.1754319357     -2.1206176401     -1.2685862953
C     0.0567520439     -3.1791548199     -2.0710815545
C     1.0541635864     -2.1357075402     -2.1920860135
C     -2.0082009118     -3.3699621129     -0.9951634769
C     -1.2909960144     -2.8300007499     -2.175324024
C     -2.7338954042     -2.3034905653     -0.4208996603
C     -1.4182668121     -2.6150547996     1.7121806536
C     -2.5158765614     -1.980005225     0.9690874358
C     0.8244219141     -2.0145814966     2.594035577
C     -0.5558470261     -1.6991720241     2.4976063377
C     2.7418721656     -1.3789982492     1.4216632202
C     1.800160133     -0.9506033468     2.4265113394
C     2.8604052395     -0.8599227811     -0.9888941167
C     3.1715114832     -0.4835302954     0.4039474067
C     2.658013728     0.2112181411     -1.8848683086
C     0.5987938189     -0.8634233347     -2.7587869012
C     1.5372230065     0.1852267324     -2.7752571869
C     -1.7253792597     -1.4903353689     -2.3561403758
C     -2.7452213911     -1.2065144964     -1.3768766766
C     -0.8186746232     -0.4856854255     -2.7611156828
C     -3.0488315685     0.1126341373     -1.0018698753
C     -2.9203620513     -0.6950493606     1.3327848104
C     -3.44734779     0.2613015761     0.3696766523
C     -0.9140818272     -0.281518059     2.7058737391
C     -2.2430520111     0.0913258294     2.3650818359
C     1.483732799     0.4103222835     2.5629369666
C     0.096154667     0.7924903382     2.7751972301
C     3.1870474461     0.8671494005     0.7894085065
C     2.4070986469     1.3030687055     1.935133036
C     2.9036436568     1.6249517086     -1.517084763
C     3.1765029338     1.9515969507     -0.1837865398
C     1.0917054944     1.5358724192     -2.9303922188
C     1.9713194841     2.4401270103     -2.2249542309
C     -1.2337590046     0.9045863788     -2.5529622181
C     -2.3735137923     1.2141216133     -1.6951565471
C     -0.2465860018     1.917158605     -2.762771112
C     -2.3896444495     2.5027696075     -1.0486496661
C     -3.3965196641     1.5265659093     0.9757358906
C     -2.6158059312     1.4353706379     2.1998024616
C     -2.9286001107     2.6356484364     0.2601651338
C     -0.2774901763     2.1823231799     2.4801134023
C     -1.6556921289     2.4867893563     2.1909036637
C     -1.9686018709     3.3561359492     1.0894478855
C     2.0241042406     2.6398700534     1.6888521324
C     2.5150565513     3.0702473701     0.4062335442
C     0.6920344354     3.0704848208     1.8805222751
C     1.1789281946     3.4390096657     -1.5960797489
C     -0.2152591792     3.1605233502     -1.9832090499
C     -1.2466197464     3.4141255423     -1.1200551779
C     -0.9594008046     3.8758265061     0.2586567157
C     1.4530127886     3.7671502753     -0.2466038523
C     0.35875286     3.891078469     0.7090048


