60

 C     2.0119423313     4.2066621645     -0.9777099714
C     0.7897852014     4.7835007577     -0.7091893129
C     0.4266636009     4.5506913377     0.6744765854
C     2.4434910743     3.5285358251     0.2281373008
C     1.417785403     3.6955831936     1.2649558881
C     2.7662940076     2.2121731308     -0.1197347428
C     1.7709792094     3.1401312778     -1.9741932229
C     2.3919255729     1.964221285     -1.552249402
C     -0.2427779348     4.1091700857     -1.5120032097
C     0.3687273589     3.0896396999     -2.32385849
C     -0.9392605714     4.1389143731     0.7098346669
C     -1.3531473604     3.8053178095     -0.6867208668
C     -1.3515291384     3.2852567659     1.7201653798
C     1.0018882992     2.554508051     2.053021395
C     -0.3730878413     2.4598347406     2.4150163699
C     2.547564043     1.1329603437     0.7555840029
C     1.6826391035     1.2733271363     1.8900413032
C     2.774076719     -0.1805667169     0.176530165
C     1.8644801749     0.7008046606     -1.9080822672
C     2.3839876215     -0.4485092649     -1.1831258778
C     -0.2687083699     1.8237913556     -2.4664039712
C     0.5577855919     0.614697098     -2.509575342
C     -2.1224438991     2.6383734187     -0.944883381
C     -1.630464493     1.6924857828     -1.9535296942
C     -2.4840246101     2.4475955305     1.4711485484
C     -2.878592064     2.0973312638     0.1683007697
C     -1.0177938225     1.1740036666     2.7007877327
C     -2.3475146413     1.2222065449     2.2215880374
C     1.099371013     0.0299050767     2.4131911774
C     -0.3259589713     -0.062341868     2.6771110094
C     2.7724592438     -1.2399799972     1.0883949233
C     1.7789118233     -1.1635004093     2.1648536301
C     2.7962577714     -2.5478555684     0.6268409299
C     2.0097300438     -1.782009639     -1.566867893
C     2.4603724647     -2.8683370536     -0.7253777968
C     -0.0446427655     -0.6997584584     -2.5650778581
C     0.7391840968     -1.9233540619     -2.2903668362
C     -2.171699812     0.3954618177     -1.9531750717
C     -1.4558771133     -0.7456407348     -2.4279564104
C     -3.2697909067     0.6936233727     0.2128246357
C     -2.8949760856     0.1351782118     1.5115133502
C     -3.0582513693     -0.0945694836     -0.8907463923
C     -1.0361623065     -1.2909232155     2.3222154944
C     -2.3055163415     -1.1482848352     1.6078574486
C     1.1575629478     -2.462165366     2.2649802583
C     1.9623653906     -3.38308338     1.5086056866
C     -0.2937681932     -2.5446187884     2.2007490873
C     1.751508388     -4.1175413536     -0.6721043615
C     1.3995645699     -4.3876399151     0.7482241809
C     0.0309002436     -3.1550002354     -2.1477368774
C     0.5712643895     -4.2724402747     -1.3943755109
C     -2.078772375     -1.9294127107     -1.8705595871
C     -2.8853834038     -1.5070996456     -0.7566213583
C     -2.5874231173     -2.0936788997     0.527915423
C     -1.4005205894     -3.1226999443     -1.8371881782
C     -0.8571326078     -3.642717179     1.4661914895
C     -0.01061867     -4.6267551699     0.8145467403
C     -0.4786390749     -4.8130656001     -0.5228578022
C     -1.9564720714     -3.3509908092     0.5399959781
C     -1.6085171782     -3.9913447999     -0.7033273018


