60

 C     -0.2509117488     -4.5613214039     0.2397659177
C     -0.9521006829     -4.2116646086     -0.9249348866
C     -2.0825177226     -3.396843781     -0.5036303509
C     -0.8591140132     -3.8441674978     1.3883610583
C     -1.9703015051     -3.1200617348     0.9161734875
C     0.1995892672     -3.1363446184     2.0470014022
C     1.1455751572     -4.3957540509     0.3020397265
C     1.4373219018     -3.5484946536     1.480805501
C     1.8224207243     -3.8326587793     -0.7925795873
C     -0.2909592137     -3.4862846382     -1.9835415166
C     1.1038620761     -3.2853667763     -1.9224503794
C     -2.2609476995     -2.3288419549     -1.3835879105
C     -1.1213311957     -2.331289629     -2.3013743506
C     -2.8333424417     -1.1115424874     -0.9152487246
C     -2.2634423086     -1.8082290171     1.4044665982
C     -2.983583775     -0.8984266728     0.5246357051
C     0.0078238517     -1.7701361711     2.4784489738
C     -1.3434081055     -1.2261856954     2.3834477701
C     1.1159658393     -0.8416415878     2.4189641105
C     2.3724056067     -2.5578863289     1.113525136
C     2.6782946085     -2.7759840626     -0.2806283519
C     2.2623464337     -1.2219237319     1.5937966673
C     1.6473353828     -1.9443617237     -2.1806842562
C     2.6607684276     -1.6892880777     -1.1613797456
C     -0.5823406532     -1.0920689744     -2.7060769824
C     0.8653740079     -0.8599076866     -2.6114189288
C     -2.6029021529     0.0156634547     -1.7296406684
C     -1.4397519422     0.0409931351     -2.5741917998
C     -2.8179742148     1.3619071976     -1.2642937798
C     -3.1860111437     0.4377050846     0.9647575859
C     -3.1588461236     1.587106089     0.0547509624
C     -1.541903668     0.1242158484     2.7445409913
C     -2.5981474748     0.8653602157     2.1707228807
C     0.8794687336     0.5891659998     2.6782876948
C     -0.4394264913     1.0413295089     2.9231563911
C     1.7978652416     1.5641056758     2.2083433448
C     2.8494451035     -0.1933403483     0.7737293648
C     2.876956246     -0.3907264399     -0.6727043367
C     2.8086095273     1.1423038035     1.2359734759
C     1.3655939678     0.5154242497     -2.4109664109
C     2.5016744831     0.7151710828     -1.5313790921
C     -0.9359726468     1.3824049706     -2.6434651719
C     -1.8520582523     2.230389041     -1.9245985189
C     0.4766619314     1.6486544823     -2.6382139161
C     -1.4231253038     3.4138491962     -1.3107041462
C     -2.5610541468     2.7366878939     0.7706234193
C     -2.1860315762     2.2520384528     2.0507414884
C     -0.8604009717     2.3846392282     2.5208084557
C     -1.7108358837     3.6237627781     0.1203293982
C     1.4328822054     2.9304967797     1.9015091678
C     0.0397836622     3.3133273892     1.8932140665
C     -0.4642172378     4.0484073298     0.7461133756
C     3.0646821657     2.1971949304     0.3725925661
C     2.8071315006     2.0223097489     -1.0433647678
C     2.2964701033     3.3501839389     0.8315341251
C     0.866429095     2.9628165564     -2.1832009327
C     -0.1131265723     3.8460762804     -1.5635014764
C     0.4388155001     4.3678194881     -0.3321164734
C     2.0759270907     3.1450691158     -1.475838827
C     1.7886074266     4.0041638858     -0.2874447191


