60

 C     1.0240723958     4.1680005179     0.2831411821
C     -0.2463025932     4.2044693295     0.7749363722
C     -1.1862921813     4.0779011639     -0.3739072644
C     0.9294212181     3.9742075044     -1.1986223891
C     -0.4338506259     3.6462302795     -1.5307537245
C     1.949962159     3.1493600938     -1.5593961422
C     1.9867007961     3.2272833332     0.7932238645
C     2.7290002559     2.7725311808     -0.3487061009
C     1.601484839     2.243789414     1.7569948676
C     -0.6735310305     3.2767141978     1.8044490313
C     0.1893941739     2.249357873     2.2504374973
C     -2.2538799108     3.3487689634     0.0527274676
C     -2.0236441075     2.9040881287     1.4554244777
C     -2.7301588008     2.2285544335     -0.6761664929
C     -0.7389932537     2.3780692822     -2.1556679338
C     -1.9905023049     1.6922355372     -1.775444102
C     1.716853539     1.9607149388     -2.3126507999
C     0.3839281923     1.5246204453     -2.6031055214
C     3.1592949135     1.4699516444     -0.4951341928
C     2.6914246435     1.0097275457     -1.8155469602
C     2.3285477095     0.9855503802     1.7493481834
C     3.1127584343     0.5548022476     0.6060755061
C     1.8377961098     -0.047875478     2.6156562968
C     -0.4418592577     0.9635474868     2.6437077979
C     0.4035830704     -0.0964334229     2.9678668594
C     -2.5552896535     1.6423975208     1.6134474502
C     -3.2290601457     1.3183337014     0.3484342581
C     -1.8067099897     0.6021134858     2.271439593
C     -3.4786621926     0.0428544496     0.0394721273
C     -2.2089336777     0.2683713889     -2.0871847668
C     -3.1993083787     -0.4297945098     -1.3123982287
C     0.1851553432     0.078845018     -2.8137987818
C     -1.1435252893     -0.5351545281     -2.6840433412
C     2.5119006366     -0.3141729505     -2.0233562153
C     1.3126013475     -0.7802505949     -2.6752619764
C     3.2455810998     -0.8749123858     0.2995270325
C     2.9508845391     -1.2982010059     -1.043023352
C     2.2986829386     -1.3447280832     2.5236564431
C     2.9662490647     -1.8212677282     1.3362507152
C     -0.0199726361     -1.4703020019     2.9588396367
C     1.1738376693     -2.2553631256     2.8263068945
C     -2.1653533293     -0.7857812286     2.0171545426
C     -3.1556493597     -1.0345747696     0.9887462024
C     -1.2291301249     -1.865154071     2.3117289045
C     -3.2029296279     -1.8282880933     -1.1973941832
C     -3.1513091455     -2.2067520785     0.2488087482
C     -1.2148970698     -1.9722518824     -2.5822794345
C     -2.2855074751     -2.6041544502     -1.8691769049
C     1.2047484023     -2.1717280965     -2.3187805591
C     2.2221538387     -2.4923601529     -1.3170266244
C     -0.0327645262     -2.7712481799     -2.2999992069
C     2.3695936329     -3.074949108     1.0259472315
C     1.2271629321     -3.306076572     1.9522704062
C     1.9055465964     -3.3806933325     -0.2597419513
C     -1.1975466866     -3.0951543288     1.4715230086
C     -2.1561987419     -3.2129038721     0.4100608818
C     -1.7207733256     -3.5600328426     -0.914698863
C     -0.3558297745     -3.7147462886     -1.2150277044
C     0.0775012635     -3.714658629     1.2141894218
C     0.5325433617     -3.903427895     -0.153499284


