60

 C     1.4177366115     -4.2383681048     -0.2161128286
C     2.5002510582     -3.3422422454     -0.1437868297
C     2.3508523131     -2.6179456171     1.0886558869
C     0.5897518786     -4.143487791     0.9472225916
C     1.125573381     -3.0886982224     1.7575543307
C     -0.7723536805     -4.0694948564     0.4977576663
C     0.6328484823     -3.956600595     -1.3879669204
C     -0.7367876857     -3.9150881713     -0.9912174467
C     2.4761936336     -2.5695579965     -1.3703913317
C     1.242926243     -2.8687951126     -2.1022782521
C     2.9149525237     -1.2783113586     -1.3129747763
C     2.7225729485     -1.2653461079     1.1708548846
C     3.2676072931     -0.6925139432     -0.0374409765
C     1.9781259666     -0.3595025203     2.0638991757
C     0.2578493306     -2.1446934669     2.3909458692
C     0.6644185065     -0.746273759     2.5667449942
C     -1.6655513162     -3.3225502279     1.2281899278
C     -1.1567976793     -2.4413072593     2.2945635212
C     -2.7383584997     -2.5805559221     0.5592176143
C     -1.546157855     -2.9539791141     -1.5734663668
C     -2.6499636419     -2.3527363118     -0.8293301987
C     0.4437159137     -1.7749545746     -2.5738281751
C     -0.9708782496     -1.9203635835     -2.416414082
C     2.286995247     -0.2060820131     -2.0771303153
C     0.9950197031     -0.3926581429     -2.6095912227
C     3.3079918422     0.7063393125     -0.2161743741
C     2.6931312655     1.0444294578     -1.4936867928
C     2.2848103977     1.0055408149     1.9964534804
C     3.0796140999     1.5303016519     0.8843544823
C     1.3380819103     2.0485110391     2.3486462151
C     -0.3415886463     0.31162411     2.7242836702
C     -0.0394462518     1.7230420855     2.49156348
C     -2.081036968     -1.4094040314     2.4677848969
C     -3.0866658174     -1.4924349251     1.406756378
C     -1.7164834195     -0.0619509799     2.633676037
C     -3.3385624902     -0.2056253684     0.936666373
C     -2.602773046     0.7314153735     1.8021236328
C     -2.8573297076     -1.0319370196     -1.3323555148
C     -1.7945678738     -0.7661222048     -2.2988650009
C     -3.3064719968     0.0281238589     -0.4832444956
C     0.1215860509     0.7919622108     -2.6513985014
C     -1.3135075268     0.5520924756     -2.5361352467
C     1.96031054     2.2338473192     -1.6599687489
C     0.6501681898     2.1227228494     -2.3214989308
C     2.6950276502     2.8517582247     0.6271705796
C     1.7277656495     3.246299292     1.6707020908
C     2.1839757591     3.2529321589     -0.6315709723
C     0.8018916769     4.0984502912     1.127350389
C     1.140632891     4.2032287326     -0.3336834521
C     -1.0479829534     2.6427117459     1.8984312123
C     -2.2834782279     2.0249308208     1.3851046518
C     -0.5958863062     3.8395758574     1.2470636421
C     -3.0197914927     1.3363420115     -0.8910299614
C     -2.1567000509     1.5936161246     -2.0441327996
C     -2.7741105346     2.3885828664     0.064184188
C     -0.2965220293     3.1891779134     -2.0683479816
C     -0.0186318984     4.2054278774     -1.039082534
C     -1.1391429439     4.1698896823     -0.0658705931
C     -1.6609258326     2.893078764     -1.9332672092
C     -2.143923935     3.4436267247     -0.6356788301


