60

 C     -1.2468639381     -4.5328248899     1.2113078838
C     -0.4774581038     -5.0373212457     0.117629543
C     0.8862632206     -4.5388876302     0.2883091026
C     -0.394497576     -3.7378155999     2.0096828132
C     0.9613977666     -3.7661955909     1.4931387598
C     -1.0022221246     -2.438718072     2.3121135918
C     -2.1976311086     -3.5616113265     0.687412357
C     -2.201147877     -2.3601007558     1.4840531392
C     -0.9205151442     -4.3385871811     -1.0360165151
C     -2.0354978727     -3.4427063533     -0.7151927461
C     1.3820371049     -3.9565101692     -0.9336623419
C     0.1990936114     -3.802670695     -1.7952924903
C     2.2813103685     -2.9029997131     -0.8424409028
C     1.7528294138     -2.58167324     1.5585389924
C     2.5933132212     -2.3044466625     0.4395676727
C     -0.2145673313     -1.3092989952     2.5473984553
C     1.234134105     -1.4157336693     2.3135021083
C     -0.8682065472     0.004445701     2.4274251882
C     -2.510520005     -1.1386224551     0.9053818903
C     -2.0767380865     0.0418614762     1.6564359441
C     -2.1349925249     -2.1510727886     -1.3316187259
C     -2.6201497466     -1.031521574     -0.5506562434
C     0.0225612334     -2.6141121407     -2.4794313184
C     -1.2076185233     -1.830390166     -2.3748066144
C     2.2434079177     -1.7943136485     -1.801486328
C     1.1164522819     -1.6515154931     -2.6096310085
C     3.0404989198     -0.9583865188     0.1904659119
C     2.8000448483     -0.6167714115     -1.1986660737
C     1.9041475541     -0.2066895072     2.2057210089
C     2.8829870322     0.0160180676     1.1570504449
C     -0.1238862183     1.2431058138     2.5783723162
C     1.2861565189     1.0890989957     2.4746806743
C     -0.7189229161     2.5542386451     2.2431355946
C     -2.5382210198     1.2725501391     1.1887868376
C     -2.0212709822     2.5358974136     1.6356442382
C     -2.5581022202     0.2910569503     -1.0881246548
C     -2.9213570356     1.3641942181     -0.2171500412
C     -0.8802280006     -0.4747914801     -2.6536138668
C     0.561191085     -0.3448022311     -2.8055941793
C     -1.6306464983     0.6138288689     -2.1571212902
C     2.3767495053     0.695166206     -1.533450988
C     1.199945753     0.839888281     -2.3923572626
C     2.8334331781     1.3927625759     0.7890247801
C     2.0487539524     2.0946225324     1.8008135409
C     2.6348385189     1.7531490703     -0.5725575523
C     0.149563636     3.6610489105     1.8851964879
C     1.5275845877     3.3500516023     1.5493992725
C     -0.2610506219     4.6677068205     0.9228732916
C     -2.3374657586     3.4813279332     0.5955620961
C     -2.6915171587     2.6749958639     -0.5964842613
C     -1.4825917779     4.4871948461     0.2168751081
C     -1.0580558827     1.9498931415     -2.2663225505
C     0.3978538531     2.0602472243     -2.3397437371
C     -1.7866751628     3.029663418     -1.6476623458
C     -1.140719536     4.2392343818     -1.2345500414
C     2.0656447372     3.041621624     -0.8170504939
C     1.8338294392     3.9745495979     0.2738013623
C     0.7870970319     4.8415639801     -0.0556715329
C     1.0205256425     3.2222167834     -1.7872026717
C     0.2356911608     4.3578902219     -1.3257418296


