60

 C     3.8825688693     -0.8601305738     -1.9111830176
C     3.9782798203     -1.2664011957     -0.5766281962
C     4.0450759358     -0.1195982518     0.3188374813
C     3.6839097796     0.5684185622     -1.8880782879
C     3.931496408     1.0426533111     -0.5394819781
C     2.4149852883     0.8486631501     -2.4360967884
C     2.6690388885     -1.4678228372     -2.4143536991
C     1.792580037     -0.4400360249     -2.8236061287
C     3.0203628469     -2.3423948401     -0.3268845768
C     2.1675554891     -2.4624322793     -1.5171336452
C     2.4401780837     -2.4184481562     0.9160882979
C     3.3356082502     -0.1649911533     1.568364272
C     2.6032891882     -1.348544232     1.9024953336
C     2.7943416129     1.0659617342     2.0845052863
C     3.2258430842     2.1680456369     -0.097919596
C     2.8557524072     2.2224757766     1.2683722129
C     1.571853485     1.9119154591     -1.9232702545
C     2.0740781051     2.6716180977     -0.8435660273
C     0.1355812298     1.836571762     -2.1728787344
C     0.4050005873     -0.6138042302     -2.741535959
C     -0.4050005873     0.6138042302     -2.741535959
C     0.7753597897     -2.6657765693     -1.3916583825
C     -0.1355812298     -1.836571762     -2.1728787344
C     1.1052760894     -2.9626309236     1.04211575
C     0.2848302612     -3.1757312749     -0.1034006642
C     1.3736605094     -1.2863952978     2.6275097708
C     0.537800573     -2.4055267463     2.2424351579
C     1.5104495668     1.1166252664     2.7785501991
C     0.7453306921     -0.0417966835     3.0109976671
C     1.6358008534     2.9939937958     1.4199470935
C     1.1193538374     3.217481369     0.1271554074
C     0.8366983761     2.3658493433     2.400301806
C     -0.7753597897     2.6657765693     -1.3916583825
C     -0.2848302612     3.1757312749     -0.1034006642
C     -2.1675554891     2.4624322793     -1.5171336452
C     -1.792580037     0.4400360249     -2.8236061287
C     -2.6690388885     1.4678228372     -2.4143536991
C     -1.571853485     -1.9119154591     -1.9232702545
C     -2.4149852883     -0.8486631501     -2.4360967884
C     -1.1193538374     -3.217481369     0.1271554074
C     -2.0740781051     -2.6716180977     -0.8435660273
C     -0.8366983761     -2.3658493433     2.400301806
C     -1.6358008534     -2.9939937958     1.4199470935
C     -0.7453306921     0.0417966835     3.0109976671
C     -1.5104495668     -1.1166252664     2.7785501991
C     -0.537800573     2.4055267463     2.2424351579
C     -1.1052760894     2.9626309236     1.04211575
C     -1.3736605094     1.2863952978     2.6275097708
C     -3.0203628469     2.3423948401     -0.3268845768
C     -2.4401780837     2.4184481562     0.9160882979
C     -2.6032891882     1.348544232     1.9024953336
C     -3.8825688693     0.8601305738     -1.9111830176
C     -3.6839097796     -0.5684185622     -1.8880782879
C     -3.9782798203     1.2664011957     -0.5766281962
C     -3.2258430842     -2.1680456369     -0.097919596
C     -2.8557524072     -2.2224757766     1.2683722129
C     -2.7943416129     -1.0659617342     2.0845052863
C     -3.3356082502     0.1649911533     1.568364272
C     -3.931496408     -1.0426533111     -0.5394819781
C     -4.0450759358     0.1195982518     0.3188374813


