60

 C     1.4729199547     4.4451915268     0.6901417501
C     1.4729199547     4.4451915268     -0.6901417501
C     0.1029969486     4.3540008066     -1.1799681332
C     0.1029969486     4.3540008066     1.1799681332
C     -0.7674852457     4.3915388571     0.
C     0.0432809973     3.2203559179     2.0109344384
C     2.253559219     3.3136371576     1.1628850145
C     1.400500284     2.5863846833     2.0020994648
C     2.253559219     3.3136371576     -1.1628850145
C     2.7718818908     2.6035619824     0.
C     0.0432809973     3.2203559179     -2.0109344384
C     1.400500284     2.5863846833     -2.0020994648
C     -1.125425362     2.373990992     -2.0664649123
C     -1.8768426877     3.5896016609     0.
C     -2.1892875218     2.751149373     -1.1694233917
C     -1.125425362     2.373990992     2.0664649123
C     -2.1892875218     2.751149373     1.1694233917
C     -0.9970721822     0.9835435743     2.4562214755
C     1.5043784588     1.1842316236     2.1039005724
C     0.3713950471     0.4506257514     2.644296381
C     2.7905794573     1.2059648554     0.
C     2.4053038444     0.488752387     1.2106099289
C     1.5043784588     1.1842316236     -2.1039005724
C     2.4053038444     0.488752387     -1.2106099289
C     -0.9970721822     0.9835435743     -2.4562214755
C     0.3713950471     0.4506257514     -2.644296381
C     -2.0193683485     0.0100204782     -2.1091410074
C     -3.0800279204     1.7610631051     -0.7429461893
C     -3.0800279204     1.7610631051     0.7429461893
C     -3.0249800423     0.4410549879     -1.1778515314
C     -2.0193683485     0.0100204782     2.1091410074
C     -3.0249800423     0.4410549879     1.1778515314
C     -3.2698016858     -0.399580199     0.
C     -1.757927527     -1.4300995515     2.1701898572
C     0.5647060943     -0.9051548995     2.8182958116
C     -0.5314356926     -1.8717230076     2.7619897397
C     2.4629635794     -0.9455300869     1.2370940119
C     1.7467905793     -1.5729794799     2.2894193328
C     2.4629635794     -0.9455300869     -1.2370940119
C     2.7165185087     -1.706130901     0.
C     0.5647060943     -0.9051548995     -2.8182958116
C     1.7467905793     -1.5729794799     -2.2894193328
C     -1.757927527     -1.4300995515     -2.1701898572
C     -0.5314356926     -1.8717230076     -2.7619897397
C     -2.9012758198     -1.7016620837     0.
C     -2.308657262     -2.3080537398     1.1786068165
C     -2.308657262     -2.3080537398     -1.1786068165
C     -1.6439849359     -3.5057270217     0.74210706
C     -1.6439849359     -3.5057270217     -0.74210706
C     0.0000198966     -3.1366078286     2.4782699132
C     1.446884331     -2.9600535596     2.2256849358
C     -0.5189383819     -3.9789731594     1.4502016254
C     2.4680685204     -3.1100848268     0.
C     1.8294935048     -3.7209039655     1.1470502517
C     0.6260907686     -4.4648009859     0.686358215
C     1.446884331     -2.9600535596     -2.2256849358
C     0.0000198966     -3.1366078286     -2.4782699132
C     -0.5189383819     -3.9789731594     -1.4502016254
C     1.8294935048     -3.7209039655     -1.1470502517
C     0.6260907686     -4.4648009859     -0.686358215


