60

 C     2.1366482899     -3.4016657606     0.3746698307
C     0.9703280205     -3.9736075122     -0.0577105477
C     -0.0073021101     -3.9178423158     1.0333956631
C     1.9010313037     -2.8921834899     1.75266129
C     0.5312374529     -3.0713761478     2.0728006414
C     2.5129283853     -1.656947833     1.8623754514
C     2.8011586825     -2.380565249     -0.3689064557
C     3.2855498559     -1.4402181607     0.6168078697
C     2.2690395923     -1.9090583878     -1.6069416127
C     0.342058642     -3.5115379246     -1.2629251977
C     1.0089000236     -2.5353849877     -2.0802450301
C     -1.2494551787     -3.6538758132     0.4683747874
C     -1.0752160138     -3.4060128562     -0.9814510573
C     -2.1354044781     -2.8506027495     1.2014489005
C     -0.2411036087     -1.9377329967     2.5542911151
C     -1.6234172542     -1.975781033     2.2294895277
C     1.8223944287     -0.5305724288     2.4725112109
C     0.408170093     -0.6267490747     2.7502749105
C     2.4115121312     0.7474720685     2.1985493645
C     3.6186116735     -0.1630770269     0.2621423397
C     3.4073816493     0.8834834631     1.2129179066
C     2.5453198232     -0.488078372     -1.9429348002
C     3.2574993873     0.3371453253     -1.0442001006
C     1.6493626472     0.2079983453     -2.8379840688
C     0.1427918642     -1.7364058461     -2.8872059788
C     0.5661090414     -0.4550270101     -3.378721714
C     -1.8655213527     -2.4097202194     -1.6149448616
C     -1.2543188506     -1.6283233402     -2.6211488583
C     -3.1142348736     -2.0931372976     0.4886078254
C     -2.9326289419     -1.7701371806     -0.8659983512
C     -2.4115121312     -0.7474720685     2.1985493645
C     -3.4073816493     -0.8834834631     1.2129179066
C     -0.408170093     0.6267490747     2.7502749105
C     -1.8223944287     0.5305724288     2.4725112109
C     1.6234172542     1.975781033     2.2294895277
C     0.2411036087     1.9377329967     2.5542911151
C     3.1142348736     2.0931372976     0.4886078254
C     2.9326289419     1.7701371806     -0.8659983512
C     2.1354044781     2.8506027495     1.2014489005
C     1.2543188506     1.6283233402     -2.6211488583
C     1.8655213527     2.4097202194     -1.6149448616
C     -0.5661090414     0.4550270101     -3.378721714
C     -1.6493626472     -0.2079983453     -2.8379840688
C     -0.1427918642     1.7364058461     -2.8872059788
C     -3.2574993873     -0.3371453253     -1.0442001006
C     -3.6186116735     0.1630770269     0.2621423397
C     -2.5453198232     0.488078372     -1.9429348002
C     -2.5129283853     1.656947833     1.8623754514
C     -3.2855498559     1.4402181607     0.6168078697
C     -0.5312374529     3.0713761478     2.0728006414
C     -1.9010313037     2.8921834899     1.75266129
C     1.2494551787     3.6538758132     0.4683747874
C     1.0752160138     3.4060128562     -0.9814510573
C     0.0073021101     3.9178423158     1.0333956631
C     -1.0089000236     2.5353849877     -2.0802450301
C     -2.2690395923     1.9090583878     -1.6069416127
C     -2.8011586825     2.380565249     -0.3689064557
C     -2.1366482899     3.4016657606     0.3746698307
C     -0.342058642     3.5115379246     -1.2629251977
C     -0.9703280205     3.9736075122     -0.0577105477


