60

 C     -2.0735820961     -4.0452047437     0.163207348
C     -1.3911847708     -3.9388683911     -1.1385391212
C     -0.0459216586     -4.1914387626     -0.9405209319
C     -1.0354740133     -4.0464355626     1.1809669407
C     0.1812865188     -4.2869425416     0.5463008246
C     -1.1563507423     -2.8367485809     1.9924029521
C     -2.7930644054     -2.8745088721     0.3198296287
C     -2.3405248065     -2.1727893375     1.5237828199
C     -1.7560854139     -2.6911993435     -1.7693236801
C     -2.7489673815     -2.0900005077     -0.9032867987
C     -0.7776972157     -1.8301370982     -2.3621102098
C     0.9577195134     -3.3452479849     -1.4659251338
C     0.6403466546     -2.1802757999     -2.2444514415
C     1.3254273781     -3.5441820905     0.855531028
C     1.9626792107     -3.2027673828     -0.4229119967
C     -0.014321118     -2.0454694372     2.3423318934
C     1.2923394597     -2.5145242051     1.8749088866
C     -0.2084166239     -0.6120323868     2.6020391433
C     -2.4974912546     -0.7983112572     1.6112317633
C     -1.5120893914     -0.0383114591     2.367982861
C     -2.9492495499     -0.7143518848     -0.8388504454
C     -3.1681052881     -0.122178798     0.486845284
C     -1.1557825524     -0.4257023101     -2.5295415763
C     -2.3324310326     0.105876321     -1.865901141
C     -0.1376494982     0.5106668506     -2.8781180973
C     1.6492264685     -1.1108794733     -2.3014037105
C     1.2383086314     0.1953721083     -2.7006225115
C     2.9101962487     -2.2174408141     -0.482695252
C     2.8214673257     -1.1770921311     -1.4925799002
C     2.3540198507     -1.5795307522     1.8342818121
C     3.2844615384     -1.585931893     0.741650316
C     0.9468226243     0.3133373711     2.6262800542
C     2.2046271238     -0.2094919161     2.2729304204
C     0.7604482531     1.7822308645     2.4855185482
C     -1.6836731468     1.3843467135     2.3910183692
C     -0.5443723813     2.3050025888     2.4400793524
C     -3.3156296647     1.2534488259     0.5677756203
C     -2.7141286662     1.9826491009     1.6580686684
C     -2.4969368178     1.5219468942     -1.7414294057
C     -3.1280493748     2.0567149005     -0.6049976106
C     -0.2894053534     1.9451004896     -2.6750886883
C     -1.4521003748     2.459373759     -2.1449652016
C     1.9369430026     1.4099337483     -2.2769297789
C     0.9991603935     2.4993898575     -2.3014712487
C     3.3995945709     0.0257771155     -0.9205621475
C     3.6769611085     -0.2577965498     0.4550213094
C     3.1501270487     0.5969660437     1.4760656459
C     2.9555584011     1.3323270288     -1.2852403551
C     1.7775442329     2.5702850539     1.8162924968
C     2.874541224     1.8945519767     1.1610417244
C     2.9441332636     2.3468500613     -0.2487421509
C     1.0623009784     3.5290881977     -1.3409614594
C     1.4054926874     3.631541675     0.9640409886
C     2.0680125826     3.4247405014     -0.3380278338
C     -0.8913104726     3.4747830371     1.6439183339
C     -2.2117712825     3.2571666885     1.1466879779
C     -2.4563014071     3.2990480587     -0.2252237639
C     -1.4040357891     3.5589506541     -1.1701536757
C     0.0716575511     4.0166515012     0.7623261682
C     -0.1693003009     4.0016747802     -0.6997840119


