60

 C     0.6719292532     -4.289259558     -0.0280595525
C     -0.213546405     -4.0181237213     -1.0919223793
C     -1.4983200851     -3.7474844127     -0.522297482
C     -0.0188256076     -3.9098924901     1.234035837
C     -1.3361116092     -3.5464753727     0.9188050823
C     0.8233756645     -3.0194749905     1.957654497
C     1.905482067     -3.6773194891     -0.0222640347
C     2.1007299859     -3.0121583303     1.2955649568
C     2.3073960097     -2.7645278315     -1.0384245301
C     0.0844007982     -2.9798008418     -2.0558629464
C     1.3541980389     -2.3176164214     -2.0308037474
C     -2.1075832119     -2.7386548078     -1.2879251382
C     -1.1092724772     -2.1867485142     -2.2390167237
C     -2.9814752122     -1.8928634452     -0.6483158864
C     -1.9327995395     -2.3972769351     1.5448755692
C     -3.0014495727     -1.8075442418     0.8054388178
C     0.3167329453     -1.7791832276     2.4858105636
C     -1.1114857096     -1.5001804532     2.3688537009
C     1.2667342335     -0.663870831     2.590454445
C     2.8159481068     -1.8483459883     1.0941830437
C     3.1102836265     -1.7712030416     -0.3519460531
C     2.5032220149     -0.644031173     1.8136337569
C     3.3394316132     -0.5689361337     -0.9239091655
C     1.4078616171     -0.9187047589     -2.4798940391
C     2.584810624     -0.1826773116     -2.1197900407
C     -1.0980578825     -0.8103441329     -2.546350845
C     0.1988554959     -0.1533141229     -2.7659590057
C     -3.227528463     -0.569032365     -1.2024968096
C     -2.2797276676     -0.0009115761     -2.1499810136
C     -3.4635794661     -0.5047983085     1.088679299
C     -3.7523708241     0.2108595657     -0.1707595273
C     -1.5803809048     -0.113037644     2.574272211
C     -2.7841708622     0.3658661541     1.9215710624
C     0.7460206754     0.5936533736     2.9888462167
C     -0.6561661812     0.875785697     2.9252638803
C     1.4246951291     1.796243137     2.665698884
C     3.0173657131     0.6052869256     1.2628187964
C     3.5088263611     0.6172217744     -0.0900417532
C     2.460601698     1.8509924966     1.7300519256
C     2.6065898676     1.2140055254     -2.1427962618
C     3.2272336456     1.716572222     -0.9199899468
C     0.2489529563     1.3163026831     -2.7760371576
C     1.473848193     1.9948069127     -2.4412129362
C     -2.1936440849     1.3976834547     -2.1480650376
C     -0.9438674509     2.0681721572     -2.5220094442
C     -3.4250773113     1.5673082079     -0.0158743611
C     -2.8431220138     1.7240429457     1.3026030902
C     -2.8301770935     2.2123042871     -1.1159247532
C     -0.8123453322     2.2971084719     2.4830608677
C     0.4532504319     2.8501044755     2.3926019671
C     -1.8316610169     2.6730619233     1.5291573823
C     2.1890113668     2.9992116881     0.8429666393
C     2.5076926518     2.870315937     -0.5101288906
C     1.4952320611     3.1450698456     -1.5324785542
C     0.9039535762     3.5712052525     1.2262538652
C     -0.887545988     3.294131638     -1.8209864391
C     -1.9691467285     3.2998276355     -0.8598833264
C     -1.4327928427     3.5471192398     0.4312727075
C     0.2978248464     3.728755137     -1.1592116818
C     -0.0302596241     3.9307736077     0.2561902989


