60

 C     -3.7706325588     -1.2684392714     -2.0913115854
C     -4.2075304864     -0.6321301911     -0.8587912636
C     -3.9965645901     0.7465201923     -1.0068549624
C     -3.0985019975     -0.2500450127     -2.9114122735
C     -3.2712661281     0.9785295007     -2.2914547888
C     -1.7383635546     -0.6526135953     -3.1903480017
C     -2.7473901516     -2.134182301     -1.7164084701
C     -1.5265110688     -1.8824816313     -2.4651235372
C     -3.5627760529     -1.2689753126     0.2764243439
C     -2.6443552105     -2.2435191846     -0.2727751218
C     -3.1495117688     -0.5219474336     1.4145017612
C     -3.3630487541     1.4995151655     -0.0043029599
C     -3.143933808     0.934864915     1.2860707719
C     -2.1659779761     1.8335714369     -2.0123625492
C     -2.2494496646     2.2156145     -0.6288544452
C     -0.6679357024     0.2844673774     -3.1895555724
C     -0.8750215978     1.5709680087     -2.5499165505
C     0.6679357024     -0.2844673774     -3.1895555724
C     -0.2771526286     -2.1983207482     -1.9126936048
C     0.8750215978     -1.5709680087     -2.5499165505
C     -1.4051893337     -2.5140723373     0.3296463116
C     -0.2084016994     -2.6237588401     -0.5203055854
C     -2.176379527     -1.1483659861     2.3096206639
C     -1.2751588767     -2.1700493819     1.7444265578
C     -1.6942762152     -0.351871315     3.4028661572
C     -2.2437611272     1.6602044328     2.11142639
C     -1.7411585647     1.0716653532     3.2586128098
C     -1.0832349484     2.5974529344     0.1142799021
C     -1.1668074615     2.4742036698     1.5208338262
C     0.2771526286     2.1983207482     -1.9126936048
C     0.2084016994     2.6237588401     -0.5203055854
C     1.7383635546     0.6526135953     -3.1903480017
C     1.5265110688     1.8824816313     -2.4651235372
C     3.0985019975     0.2500450127     -2.9114122735
C     2.1659779761     -1.8335714369     -2.0123625492
C     3.2712661281     -0.9785295007     -2.2914547888
C     1.0832349484     -2.5974529344     0.1142799021
C     2.2494496646     -2.2156145     -0.6288544452
C     -0.0034138338     -2.3712156938     2.3456705343
C     1.1668074615     -2.4742036698     1.5208338262
C     -0.4163201518     -0.6252440013     4.0087795726
C     0.3807047827     -1.6078731934     3.4993119696
C     -0.3807047827     1.6078731934     3.4993119696
C     0.0034138338     2.3712156938     2.3456705343
C     0.4163201518     0.6252440013     4.0087795726
C     1.4051893337     2.5140723373     0.3296463116
C     1.2751588767     2.1700493819     1.7444265578
C     2.7473901516     2.134182301     -1.7164084701
C     3.7706325588     1.2684392714     -2.0913115854
C     2.6443552105     2.2435191846     -0.2727751218
C     3.9965645901     -0.7465201923     -1.0068549624
C     3.3630487541     -1.4995151655     -0.0043029599
C     4.2075304864     0.6321301911     -0.8587912636
C     3.5627760529     1.2689753126     0.2764243439
C     2.2437611272     -1.6602044328     2.11142639
C     1.7411585647     -1.0716653532     3.2586128098
C     1.6942762152     0.351871315     3.4028661572
C     2.176379527     1.1483659861     2.3096206639
C     3.143933808     -0.934864915     1.2860707719
C     3.1495117688     0.5219474336     1.4145017612


