60

 C     -1.9674006825     -4.1836847966     -0.1497505285
C     -0.964033776     -4.2724723281     -1.1972874321
C     0.2585705132     -4.6021559618     -0.5725803908
C     -1.2516381245     -4.0884560098     1.1328378932
C     0.0810884377     -4.4075491369     0.9247756452
C     -1.5830104679     -2.8339957206     1.7661252821
C     -2.6583811216     -2.9930141459     -0.3064645072
C     -2.5604563301     -2.2005475882     0.9049410638
C     -1.0253915045     -3.06602824     -1.993668188
C     -2.1795124125     -2.3193177626     -1.5039183949
C     0.1724111236     -2.3253591307     -2.3381291578
C     1.4160319157     -3.9494805693     -0.9300897458
C     1.4216633076     -2.854113055     -1.8579993373
C     1.1250372657     -3.5539830844     1.3919667331
C     2.0492432621     -3.4358305412     0.2986365308
C     -0.569195512     -1.9988866465     2.3359230956
C     0.8354439579     -2.3505170222     2.1438770526
C     -0.9350660351     -0.601629738     2.5582981726
C     -2.7125631502     -0.8164008597     0.8348613435
C     -2.1330987836     -0.0341215215     1.9072060912
C     -2.2533558234     -0.9406485827     -1.5843425028
C     -2.8316463995     -0.1826482614     -0.4654385758
C     0.0693634863     -0.875872218     -2.5529326274
C     -1.2424949504     -0.2489119284     -2.3779519653
C     1.2387902521     -0.0120622818     -2.4574547114
C     2.3811146655     -1.9037419232     -1.3607255924
C     2.7279077301     -2.2638605226     0.0156258568
C     2.3907889736     -0.5615631334     -1.7461818757
C     1.8152148181     -1.2648560645     2.0914498555
C     2.8068256895     -1.2341999061     1.0033247091
C     0.083620834     0.2986482452     2.9140553376
C     1.4584087367     -0.0108110563     2.6330861195
C     -0.086459475     1.7361517379     2.7832252734
C     -2.3263287051     1.3438542329     1.863135882
C     -1.3324014359     2.2537383264     2.414011984
C     -2.9155822591     1.238113337     -0.5449061752
C     -2.8906471506     1.9956013189     0.6844026167
C     -1.3822297773     1.1282042723     -2.4845434287
C     -2.3764057608     1.8659048482     -1.7312671525
C     1.0987699613     1.4402203087     -2.5146929619
C     -0.2229975323     1.9914119964     -2.706585975
C     2.0309638666     2.2877528158     -1.8351418625
C     3.1635926732     0.3008894068     -0.8984268982
C     3.291112762     -0.0077369847     0.5334918584
C     3.0542491249     1.6852230442     -1.034043387
C     2.1041584512     1.2375421952     2.2518984936
C     1.1453800258     2.3283327969     2.3318471421
C     3.0547111371     1.2296839972     1.231897367
C     3.0182444992     2.290004017     0.2675370716
C     1.5748525888     3.4671936902     -1.1098147886
C     1.1138333164     3.4029148208     1.3709228177
C     2.0449707495     3.3170156662     0.2717857913
C     -1.3755455459     3.4479587986     1.6657785766
C     -2.4374219623     3.3519294522     0.6803014239
C     -0.1748498948     4.0099983994     1.0866097026
C     -1.9241604528     3.209003408     -1.6838101353
C     -0.5578465991     3.2690873752     -2.2659935527
C     0.2975984193     3.9771216347     -1.3518477791
C     -1.9318862853     3.9316462877     -0.4959974739
C     -0.5219546344     4.3593105919     -0.2418499792


