60

 C     -0.2411663367     4.4565342781     0.0295553534
C     -1.5440976673     4.1359425801     -0.2600841098
C     -1.5644985711     3.3629949477     -1.5601575025
C     0.557747289     4.0840355506     -1.1618034809
C     -0.243778056     3.206618584     -2.0078013802
C     1.768879492     3.6518490578     -0.7289763473
C     0.4231156064     3.8629045219     1.1862794506
C     1.7495449155     3.5925070312     0.7555548364
C     -0.2606419597     2.8521294264     1.983757838
C     -2.3110027615     3.4148894121     0.6537993903
C     -1.6733306331     2.7396810442     1.7546753157
C     -2.4385823675     2.2680627076     -1.4137300192
C     -3.0003530432     2.3719747611     -0.0923982734
C     -2.066143192     0.9770634975     -1.9054383211
C     0.2433135699     1.8769328936     -2.3716981603
C     -0.7367667188     0.7921691751     -2.4640597228
C     2.3547517101     2.4384261116     -1.210234987
C     1.6273989708     1.5323030885     -2.0671383097
C     2.4507909296     2.4601578611     1.1322748554
C     3.0598080865     1.9058897174     -0.0925095755
C     0.4796737251     1.6278231965     2.4123208604
C     1.8951987263     1.5110361111     2.0774058855
C     -0.2379145284     0.387606711     2.7154038151
C     -2.300886815     1.4421623676     1.8622604954
C     -3.1489627197     1.236368222     0.7001141034
C     -1.667110448     0.3318230765     2.4439550342
C     -2.7545610578     -0.1618992528     -1.3037360134
C     -3.2349057171     -0.0349481675     0.0841936017
C     -2.4100645773     -1.4341326146     -1.750598508
C     -0.2772915012     -0.5717741598     -2.7061798914
C     -1.2481045065     -1.6203870902     -2.5990131505
C     2.0534618519     0.1254307447     -2.0698925173
C     1.1378468276     -0.9096001296     -2.5500971512
C     3.4968907973     0.6027634896     -0.1149509446
C     3.1173609768     -0.2730464484     -1.211098906
C     2.5388918334     0.2381994951     2.1042506575
C     3.5036241953     -0.126273424     1.0940996453
C     0.4669685261     -0.9051457042     2.7461821029
C     1.8311574084     -0.9579365768     2.4240228718
C     -0.2579213118     -2.1502772208     2.5508718193
C     -2.2999075585     -0.9246500049     2.157250409
C     -3.0945747166     -1.1232551197     0.9605856629
C     -1.6445792492     -2.1562991486     2.4210949953
C     -2.5841911041     -2.6375137914     -0.9230974126
C     -2.8295011699     -2.4607069383     0.4690950988
C     -2.0130140855     -3.1315704757     1.4053888512
C     -0.8457403924     -2.9741386461     -2.4222250454
C     -1.6287842406     -3.5826105848     -1.3247098442
C     1.4724589146     -2.2762738219     -2.2684728826
C     0.4808879953     -3.2926770239     -2.2492556667
C     3.1858918264     -1.6161509105     -0.6739064325
C     3.3425981616     -1.5056788282     0.7735914966
C     2.3740811204     -2.0732888774     1.6068721169
C     2.388980025     -2.5974829153     -1.1855199144
C     0.2716882384     -3.269322654     1.7152536508
C     -0.8433351168     -3.8343438183     0.9912974946
C     -0.702578943     -4.1675486292     -0.3926077621
C     0.5986857576     -4.0501488557     -0.9780517621
C     1.5432176773     -3.1380171642     1.1260629624
C     1.6893760118     -3.529180565     -0.2780265763


