60

 C     1.3699559327     1.4804059995     -3.4205819568
C     2.5304879814     1.3432304055     -2.7055642906
C     2.939182744     -0.0841045546     -2.7056616704
C     0.9710209403     0.1533088824     -3.9185155538
C     1.8996002939     -0.8161898308     -3.3677077238
C     -0.4064487183     0.0290971811     -3.798921174
C     0.2282186168     2.1040299611     -2.8296468029
C     -0.9046692625     1.330530534     -3.3048618743
C     0.2485734459     2.5716437546     -1.4793563051
C     2.6376080025     1.8565785397     -1.3889125971
C     1.5174924787     2.4688392452     -0.7337470502
C     3.3890301049     -0.4022040477     -1.4263329773
C     3.4273561786     0.8634286537     -0.6733130165
C     2.9176793258     -1.5837642487     -0.7309841277
C     1.3630438126     -1.9149567631     -2.6870052935
C     1.9158576907     -2.3362147128     -1.4226439791
C     -0.9951242541     -1.1801499621     -3.2360871464
C     -0.0913843563     -2.1273933612     -2.6540648232
C     -2.274739686     -1.0742593825     -2.6391849664
C     -2.0983628192     1.4141781134     -2.6554819928
C     -2.9161660215     0.2352886585     -2.5432748588
C     -1.0310765699     2.6045253276     -0.7355303968
C     -2.2056797133     2.1541769216     -1.4012574725
C     -1.0310765699     2.6045253276     0.7355303968
C     1.5174924787     2.4688392452     0.7337470502
C     0.2485734459     2.5716437546     1.4793563051
C     3.4273561786     0.8634286537     0.6733130165
C     2.6376080025     1.8565785397     1.3889125971
C     2.9176793258     -1.5837642487     0.7309841277
C     3.3890301049     -0.4022040477     1.4263329773
C     1.9158576907     -2.3362147128     1.4226439791
C     0.8342753661     -2.942101468     -0.6846972806
C     -0.4186767187     -2.7705964424     -1.4265413663
C     0.8342753661     -2.942101468     0.6846972806
C     -2.618642743     -1.7736460076     -1.4357657567
C     -1.6527638276     -2.5542035211     -0.7445011029
C     -3.689955861     0.3252475514     -1.3884947883
C     -3.3167928011     1.5567618435     -0.6864074491
C     -3.5688995629     -0.9314870658     -0.6892041074
C     -2.2056797133     2.1541769216     1.4012574725
C     -3.3167928011     1.5567618435     0.6864074491
C     -2.0983628192     1.4141781134     2.6554819928
C     0.2282186168     2.1040299611     2.8296468029
C     -0.9046692625     1.330530534     3.3048618743
C     2.5304879814     1.3432304055     2.7055642906
C     2.939182744     -0.0841045546     2.7056616704
C     1.3699559327     1.4804059995     3.4205819568
C     1.3630438126     -1.9149567631     2.6870052935
C     -0.4064487183     0.0290971811     3.798921174
C     1.8996002939     -0.8161898308     3.3677077238
C     0.9710209403     0.1533088824     3.9185155538
C     -0.4186767187     -2.7705964424     1.4265413663
C     -1.6527638276     -2.5542035211     0.7445011029
C     -0.0913843563     -2.1273933612     2.6540648232
C     -0.9951242541     -1.1801499621     3.2360871464
C     -3.5688995629     -0.9314870658     0.6892041074
C     -3.689955861     0.3252475514     1.3884947883
C     -2.9161660215     0.2352886585     2.5432748588
C     -2.618642743     -1.7736460076     1.4357657567
C     -2.274739686     -1.0742593825     2.6391849664


