60

 C     0.75308773     3.8807153268     1.5123465716
C     -0.6023434711     3.8893149766     1.3105135118
C     -0.8984373959     4.0868232392     -0.1249140657
C     1.362686051     4.0558390097     0.1701856243
C     0.3201935147     3.9581866342     -0.839916021
C     2.4234757588     3.2081412691     0.1024349189
C     1.384601134     2.7365929849     2.1535977696
C     2.5482959082     2.4651843991     1.3847672739
C     0.6153204849     1.6215037301     2.6104725051
C     -1.4412891839     2.8401942786     1.7916673056
C     -0.8558692834     1.7440159445     2.5172474488
C     -2.0376654203     3.3346997707     -0.4351781214
C     -2.4376893624     2.5796800226     0.7726560911
C     -2.0623137079     2.6642384474     -1.6654683966
C     0.4170281927     2.938026683     -1.8806235608
C     -0.8049894925     2.3935537969     -2.3413507407
C     2.6086484411     2.2552569108     -0.9576044524
C     1.600869395     2.0447847676     -1.9365140772
C     3.001900796     1.1849116072     1.1220844771
C     3.2622493086     1.1199559911     -0.3299858892
C     1.2097793821     0.2730724903     2.5352635985
C     2.4246485013     0.0497584522     1.770957602
C     0.3621337401     -0.8920514894     2.7980857033
C     -1.6248341971     0.5632123758     2.5391265079
C     -1.0410697033     -0.7248395969     2.8322170039
C     -3.0511690209     1.3071878051     0.6596117966
C     -2.7289670303     0.3512292347     1.6600188522
C     -2.8693567962     1.4953530651     -1.7810068635
C     -3.3430377386     0.7986469832     -0.6698289924
C     -0.8975199629     1.0164422286     -2.8756951477
C     -2.1919934836     0.5353067116     -2.6350085114
C     1.4979116613     0.6801904317     -2.5084014926
C     0.2133195361     0.118778124     -2.8963138701
C     3.2975615826     -0.0727777481     -0.9554478906
C     2.5114502115     -0.258170104     -2.162756822
C     2.7259263467     -1.2632062085     1.1737067806
C     3.2592578121     -1.3103820601     -0.175102858
C     0.8429730301     -2.2248059615     2.4719668891
C     2.001716549     -2.3954177404     1.5926609268
C     -0.0520233573     -3.2853976767     2.2462029861
C     -1.9296468189     -1.7436386617     2.3055020651
C     -2.8408931084     -1.0819344212     1.429171281
C     -1.4342871692     -3.0249710769     2.0048155878
C     -3.1858690846     -0.6425417857     -0.9443976613
C     -2.4243731992     -0.7753292585     -2.1573699914
C     -3.0206914559     -1.5778651597     0.0933954766
C     -0.072671312     -1.3233909146     -2.7635670724
C     -1.4056846617     -1.7626375174     -2.3024130663
C     2.2757479745     -1.6443044182     -2.2313292905
C     2.8448512583     -2.3146681471     -1.0589765248
C     1.0093514126     -2.2060174939     -2.4845562223
C     1.7320062495     -3.5218474772     0.7074588578
C     0.4743917265     -4.0621439717     1.1060658835
C     1.9889633654     -3.3739051336     -0.6756458291
C     0.8704544051     -3.3905128999     -1.6213677171
C     -1.7676802862     -3.6173827785     0.7382997574
C     -2.3537330268     -2.8228952323     -0.2566403478
C     -1.520745732     -2.8979671858     -1.4654233291
C     -0.5511849772     -4.2253392099     0.1874489511
C     -0.3927721199     -3.754456263     -1.1671450797


