60

 C     1.3210182117     4.8983959994     0.1498201647
C     1.4299519133     4.2618404776     -1.1346690474
C     0.1898128345     4.3109341948     -1.7761970373
C     -0.1098277935     5.2079017341     0.3898409896
C     -0.7972141975     4.9257239813     -0.831685457
C     -0.4700556232     4.5099500662     1.5494165667
C     1.8081558565     4.0137759167     1.1289612468
C     0.7549898092     3.8046258015     2.0696506716
C     2.098073261     2.9815201986     -0.9639704675
C     2.3598654096     2.8354699992     0.4663508371
C     1.6616994815     1.8516405108     -1.6837057161
C     -0.380263063     3.1107540588     -2.3413947487
C     0.372379108     1.885135845     -2.3904544303
C     -1.8963500677     4.0723364691     -0.8222132602
C     -1.7308111775     3.0560808826     -1.880565929
C     -1.5310418678     3.5419548201     1.5442318786
C     -2.3044861138     3.3579249745     0.3655746706
C     0.4064151771     2.5095237275     2.4433710845
C     -1.0351472404     2.3409997371     2.21381541
C     2.2299881838     1.5688206969     1.0550793628
C     1.2566955825     1.3854224132     2.1407642428
C     2.0948543619     0.5729744593     -1.1779987408
C     2.4238267541     0.4284727974     0.1917303312
C     1.6867329634     -0.6252350187     -1.8740927933
C     -0.3592215966     0.6373474477     -2.4086219679
C     0.3592215966     -0.6373474477     -2.4086219679
C     -2.26822765     1.8420387549     -1.4445211815
C     -2.6324134908     1.9997779724     -0.0344699784
C     -1.6867329634     0.6252350187     -1.8740927933
C     -1.5303566554     1.0658934437     1.9418265617
C     -2.3989334525     0.8935753902     0.7904898346
C     0.7223530172     0.088392703     2.3236367021
C     -0.7223530172     -0.088392703     2.3236367021
C     2.3989334525     -0.8935753902     0.7904898346
C     1.5303566554     -1.0658934437     1.9418265617
C     2.26822765     -1.8420387549     -1.4445211815
C     2.6324134908     -1.9997779724     -0.0344699784
C     1.7308111775     -3.0560808826     -1.880565929
C     -0.372379108     -1.885135845     -2.3904544303
C     0.380263063     -3.1107540588     -2.3413947487
C     -2.0948543619     -0.5729744593     -1.1779987408
C     -2.4238267541     -0.4284727974     0.1917303312
C     -1.6616994815     -1.8516405108     -1.6837057161
C     -1.2566955825     -1.3854224132     2.1407642428
C     -2.2299881838     -1.5688206969     1.0550793628
C     1.0351472404     -2.3409997371     2.21381541
C     -0.4064151771     -2.5095237275     2.4433710845
C     2.3044861138     -3.3579249745     0.3655746706
C     1.8963500677     -4.0723364691     -0.8222132602
C     1.5310418678     -3.5419548201     1.5442318786
C     -0.1898128345     -4.3109341948     -1.7761970373
C     0.7972141975     -4.9257239813     -0.831685457
C     -2.098073261     -2.9815201986     -0.9639704675
C     -2.3598654096     -2.8354699992     0.4663508371
C     -1.4299519133     -4.2618404776     -1.1346690474
C     -0.7549898092     -3.8046258015     2.0696506716
C     0.4700556232     -4.5099500662     1.5494165667
C     0.1098277935     -5.2079017341     0.3898409896
C     -1.8081558565     -4.0137759167     1.1289612468
C     -1.3210182117     -4.8983959994     0.1498201647


