60

 C     -0.8473721023     4.360571734     -0.0103838995
C     -0.2527069442     3.9904091097     -1.226683498
C     -1.1084766064     3.0423104647     -1.9137033234
C     -2.0025656341     3.5381431223     0.1737037471
C     -2.2217598704     2.7689551444     -1.028093101
C     -1.8815532389     2.8211604532     1.397894606
C     0.0913415043     4.0294946167     1.0437409729
C     -0.5752025122     3.1907224766     1.9885216201
C     1.1264537535     3.6198073384     -0.9719007677
C     1.3410626018     3.6240678588     0.4925402261
C     1.6907948853     2.610786531     -1.7222443941
C     -0.5267024724     1.9765642509     -2.6569597789
C     0.8973266787     1.8248304919     -2.6549324983
C     -1.2821114888     0.7727479873     -2.7727406239
C     -2.798968423     1.4792899354     -0.9392376983
C     -2.4606040719     0.5641047052     -1.9798352227
C     -2.4041072456     1.504034943     1.5404107186
C     -3.0659460956     0.899528314     0.3847796984
C     -1.7509516575     0.6139955197     2.5095929483
C     0.1701464215     2.2118303631     2.6244041095
C     -0.4454004532     0.9391819485     2.9749132631
C     2.0913939853     2.569049686     1.1013553653
C     1.5397979059     1.9750580065     2.2786632072
C     2.7068846121     1.734933537     -1.1529719865
C     2.9286795481     1.6965111669     0.2505138834
C     1.4996228006     0.5294490172     -2.7430645873
C     2.7024682048     0.5261549107     -1.9365167732
C     -0.663604599     -0.512706593     -3.0019869422
C     0.744147024     -0.6791311537     -2.9164970038
C     -2.6743030415     -0.8592968588     -1.8579901409
C     -1.5752312706     -1.5407892886     -2.5426319055
C     -3.3764598415     -0.4856670695     0.4457336597
C     -3.2183256442     -1.3827127797     -0.7070287533
C     -2.0600031638     -0.7704743845     2.5030074161
C     -3.0005675203     -1.2511148029     1.5685558604
C     -1.0472460737     -1.8064734116     2.6654725357
C     0.5665477711     -0.0571076473     3.0474522231
C     1.8018904472     0.5835842489     2.6187819558
C     0.3093492014     -1.450407492     2.7996333824
C     3.3924240107     0.441275689     0.7802370392
C     2.7629162206     -0.1426839845     1.9669389407
C     3.1865223672     -0.6664693399     -1.408609042
C     3.6628826505     -0.643451914     -0.0733382301
C     1.2679953955     -1.9549911521     -2.3783900605
C     2.480287776     -1.9289946343     -1.6386014589
C     -1.1180225339     -2.7626514565     -2.1042242129
C     0.3262911326     -3.0028718394     -2.0479107456
C     -2.7575908322     -2.701709615     -0.2353967317
C     -2.6405455709     -2.6070155319     1.173180018
C     -1.4463078911     -2.9589659155     1.8543276722
C     -1.758883965     -3.3998865704     -0.9448270093
C     0.5423095574     -3.8284933639     -0.9229673977
C     -0.4671012588     -3.6948956075     1.163688727
C     -0.708750777     -4.0062885272     -0.204322614
C     1.3539786836     -2.2595825415     2.1259293259
C     2.5857734021     -1.5858304371     1.7658198921
C     3.2270692893     -1.8833782808     0.5553250068
C     2.6120680847     -2.715033868     -0.4178682213
C     0.951847984     -3.3488121765     1.3120603501
C     1.5770990001     -3.5506652333     0.0046802513


