60

 C     1.2262893241     -3.7165897334     -1.4999538045
C     -0.1404555543     -3.8041313977     -1.522197444
C     -0.6288998775     -4.0907088386     -0.1412482297
C     1.6415411951     -3.9163926731     -0.0824301817
C     0.4591572117     -3.9416305909     0.7554504705
C     2.6644116358     -3.0496965702     0.1728231805
C     1.8657910866     -2.5251121989     -1.9783468352
C     2.9447288062     -2.2846109972     -1.0399437383
C     1.0847901817     -1.4161683514     -2.4577418203
C     -0.9625970209     -2.7981212564     -2.0867884188
C     -0.3733964883     -1.5559524475     -2.5406166932
C     -1.8531988128     -3.4410727693     0.0242062595
C     -2.153472855     -2.7538633753     -1.2499746442
C     -2.0789585945     -2.7456663186     1.2276231099
C     0.3397729103     -3.003416824     1.8589305056
C     -0.972177864     -2.5109464258     2.1213047106
C     2.6328614393     -2.1203504629     1.289273686
C     1.4800538424     -2.0841281656     2.1509396858
C     3.2624938325     -1.0044995583     -0.661504375
C     3.2069448833     -0.904694389     0.824354111
C     1.6437540867     -0.0646241033     -2.2992293507
C     2.8129413879     0.0938590765     -1.437955782
C     0.8221714621     1.1092897897     -2.5465071976
C     -1.2222778837     -0.3592805101     -2.5415054895
C     -0.6329741262     0.9812195684     -2.5539096162
C     -2.9471876574     -1.6536788457     -1.2480884875
C     -2.5686729472     -0.4949298689     -2.0561797908
C     -2.9341711093     -1.5757041273     1.2290081056
C     -3.5054837849     -1.1486790168     0.0146601792
C     -1.2092943678     -1.1930751011     2.7136822501
C     -2.4227188065     -0.6019658737     2.1669192715
C     1.2004998709     -0.8261858362     2.7619625168
C     -0.1477640871     -0.395418782     3.057715932
C     2.9168249948     0.3414973891     1.4243082286
C     1.9337775533     0.3662715688     2.4503630365
C     3.0863310314     1.3550795352     -0.8550380546
C     3.0461695515     1.5097006745     0.6208943291
C     1.3884465194     2.4084638291     -2.233377798
C     2.5507961442     2.493331094     -1.4099728626
C     0.5684350117     3.537619391     -1.8832424317
C     -1.430825746     2.1217169362     -2.0708256346
C     -0.7839845725     3.3538855057     -1.6584803383
C     -3.2416604476     0.6096979333     -1.491514534
C     -3.7007762262     0.2253392015     -0.1582089926
C     -2.6586675636     1.8677616835     -1.4119650231
C     -2.5175115749     0.7988309985     1.9377078616
C     -3.2761049436     1.2066252173     0.7749651104
C     -2.8319455596     2.3277186656     0.0032341871
C     -0.2344515332     1.0495938589     2.9063369255
C     1.0729593679     1.533829655     2.6073991188
C     -1.4031509611     1.6746689332     2.3715995173
C     2.4034489365     2.7413675429     0.9377897453
C     2.2543733653     3.4409516125     -0.3101780663
C     1.1285619303     4.1491595445     -0.6354488096
C     1.2900897481     2.7468758023     1.8857721457
C     -1.1370312738     3.9744891012     -0.3626361473
C     -1.9641489733     3.2593216096     0.5273790888
C     -1.1933858251     2.9281587739     1.7356966317
C     0.0786750616     4.2580686963     0.3099392686
C     0.1202546655     3.5169022213     1.5627713221


