60

 C     -4.6052926883     0.4596197326     0.2967312545
C     -4.4273687674     -0.7341527072     -0.4755855029
C     -3.8584545146     -0.3434874064     -1.7037054556
C     -3.9048573732     1.5661055618     -0.4028286372
C     -3.436922203     1.071497532     -1.6113323528
C     -2.95867848     2.1574065602     0.5149978967
C     -4.2233781812     0.4792310226     1.6221458326
C     -3.2550389505     1.615440843     1.7992162183
C     -3.6484936491     -0.6674902613     2.2203200847
C     -3.6091717998     -1.8353287726     0.0514147931
C     -3.2286432953     -1.7997164755     1.4004199035
C     -2.8862326559     -1.3147481089     -2.0892639165
C     -2.6116859048     -2.184620338     -0.9503390027
C     -1.8721564056     -0.9049219412     -2.8993986856
C     -2.1483250046     1.4579998839     -2.1170497008
C     -1.6226801327     0.5573246872     -3.0990917054
C     -1.5882325616     2.4173281547     0.1272904074
C     -1.2060441631     2.2050561755     -1.2808666336
C     -0.5573093262     2.3008158098     1.1341923272
C     -2.2197914373     1.1838713101     2.6230403192
C     -2.4905191347     -0.221663378     2.9335543476
C     -0.8865673302     1.579991812     2.3615013996
C     -1.8420686536     -2.0920082671     1.7279595372
C     -1.451593665     -1.1462092697     2.7719764534
C     -1.2482294152     -2.4788543948     -0.6404383309
C     -0.8604915435     -2.4448523173     0.7702333093
C     -0.592657781     -1.5543776535     -2.8475799138
C     -0.2011498058     -2.2498211274     -1.6522954448
C     -0.3137129503     0.6699288782     -3.4854185692
C     0.3137129503     -0.6699288782     -3.4854185692
C     0.2011498058     2.2498211274     -1.6522954448
C     0.592657781     1.5543776535     -2.8475799138
C     0.8604915435     2.4448523173     0.7702333093
C     1.2482294152     2.4788543948     -0.6404383309
C     1.8420686536     2.0920082671     1.7279595372
C     0.1322426123     0.7233867106     2.9001997674
C     -0.1322426123     -0.7233867106     2.9001997674
C     1.451593665     1.1462092697     2.7719764534
C     0.5573093262     -2.3008158098     1.1341923272
C     0.8865673302     -1.579991812     2.3615013996
C     1.2060441631     -2.2050561755     -1.2808666336
C     1.5882325616     -2.4173281547     0.1272904074
C     1.6226801327     -0.5573246872     -3.0990917054
C     1.8721564056     0.9049219412     -2.8993986856
C     2.1483250046     -1.4579998839     -2.1170497008
C     2.6116859048     2.184620338     -0.9503390027
C     2.8862326559     1.3147481089     -2.0892639165
C     3.2286432953     1.7997164755     1.4004199035
C     3.6091717998     1.8353287726     0.0514147931
C     2.4905191347     0.221663378     2.9335543476
C     2.2197914373     -1.1838713101     2.6230403192
C     3.6484936491     0.6674902613     2.2203200847
C     2.95867848     -2.1574065602     0.5149978967
C     3.2550389505     -1.615440843     1.7992162183
C     4.2233781812     -0.4792310226     1.6221458326
C     3.436922203     -1.071497532     -1.6113323528
C     3.8584545146     0.3434874064     -1.7037054556
C     4.4273687674     0.7341527072     -0.4755855029
C     3.9048573732     -1.5661055618     -0.4028286372
C     4.6052926883     -0.4596197326     0.2967312545


