60

 C     -1.7457689955     -4.30341497     0.1010609163
C     -0.7364423875     -4.3989321895     -0.9324077963
C     0.4980744837     -4.6035505445     -0.2798183895
C     -1.0335769303     -4.0310019883     1.3788139214
C     0.3027851288     -4.2844584207     1.2002771661
C     -1.4547570362     -2.7411686555     1.898471329
C     -2.5145598752     -3.1880739295     -0.1544797262
C     -2.4938700821     -2.3118691226     1.0072860678
C     -0.8739853181     -3.2626053626     -1.8279071454
C     -2.0785032843     -2.5690180116     -1.4118020473
C     0.2542407386     -2.4462299506     -2.1956191507
C     1.605493387     -3.9077050738     -0.6917589394
C     1.5446839888     -2.8723644184     -1.6928243549
C     1.2865237314     -3.308672823     1.5758364838
C     2.2247664985     -3.2875710212     0.4990160914
C     -0.5092011453     -1.743407234     2.3303117294
C     0.9100168711     -2.0339267721     2.1730679707
C     -0.9570317681     -0.3438719243     2.3599979707
C     -2.7986225685     -0.9779518233     0.8370335435
C     -2.2657461261     -0.0287716362     1.8038883104
C     -2.2497185073     -1.2062456379     -1.5784231246
C     -2.9876819779     -0.5009880142     -0.5207402597
C     0.0515294436     -1.0044482168     -2.4675549182
C     -1.2527704834     -0.4109684765     -2.2980838259
C     1.2039032185     -0.0953372971     -2.4476929415
C     2.4590008967     -1.8559703517     -1.2673649747
C     2.8475563177     -2.1225483616     0.1249766405
C     2.4050042152     -0.5334265966     -1.7423656715
C     1.8177389682     -0.9081791734     2.0183435773
C     2.8610780949     -1.0212248202     1.0153823023
C     -0.0124498361     0.7467370232     2.5238240655
C     1.407397979     0.4439927294     2.3988111993
C     -0.4828802384     2.1368056391     2.3066230631
C     -2.6971798629     1.2917269822     1.6491982126
C     -1.8165028994     2.3894422512     1.9364467
C     -3.269954865     0.8429937265     -0.6820977121
C     -3.4604044605     1.6564913065     0.4688517948
C     -1.4432448896     1.036994189     -2.3660703355
C     -2.5894947313     1.6353442011     -1.7250675166
C     1.0093856847     1.3020697169     -2.543723625
C     -0.3119744813     1.8749751352     -2.5596565331
C     1.9236199322     2.2653706059     -1.9446700463
C     3.179230572     0.4051932539     -1.007248744
C     3.4118923987     0.1389102358     0.4292548638
C     3.0155756524     1.8116369905     -1.1757020067
C     2.3153829244     1.5204420348     2.098937688
C     3.3298821059     1.3360842053     1.106354934
C     3.2550203197     2.4301829427     0.1122022743
C     0.4771786612     3.1516025732     1.8860612262
C     1.8150305697     2.8459907422     1.8617162135
C     2.4066988362     3.3827018703     0.5971022579
C     -0.2344222749     3.1941159194     -1.9627691128
C     1.1325502435     3.3963136727     -1.4969555405
C     0.1876385578     4.0084527594     0.6928775182
C     1.3361924158     3.905542971     -0.1951179202
C     -2.1378457692     3.4537245089     0.9646837495
C     -3.1297692604     2.9881844956     0.1048139035
C     -2.5429829109     2.9601400174     -1.2471771068
C     -1.0807767717     4.0605822845     0.1841150925
C     -1.3129528985     3.6911578336     -1.2305395121


