60

 C     0.081374978     4.3665917466     0.473006819
C     -0.0629095889     3.7599343607     1.7374622728
C     -1.4147523387     3.2197535822     1.816359533
C     -1.1375194385     4.0675373888     -0.3126265377
C     -2.0640197554     3.4151778257     0.5489694738
C     -0.7465840219     3.4471814456     -1.5309838494
C     1.1907372934     4.0552178696     -0.309079526
C     0.6853184042     3.5244867372     -1.6069143986
C     2.1824639504     3.1684389828     0.1510909665
C     0.8427358588     2.7453250758     2.1616192459
C     2.0207172541     2.4590438512     1.4089787157
C     -1.3638629442     1.932219359     2.3771699417
C     0.0315503982     1.6142535144     2.6366961098
C     -2.2568257024     0.9024427459     1.9496992118
C     -2.8194612517     2.358100598     0.0287368933
C     -3.1006167167     1.2039142707     0.8306908736
C     -1.3943041865     2.2499409959     -2.0114238709
C     -2.5821616999     1.8711249991     -1.3280468567
C     -0.5738821442     1.1656679046     -2.5963739764
C     1.4592665172     2.4429087647     -1.993147357
C     2.5475464597     2.3650094492     -1.0138161217
C     0.8777302941     1.2092969201     -2.5068471567
C     3.2148427993     1.2129938781     -0.8502808314
C     2.6093801034     1.129910308     1.5434304073
C     3.4973458491     0.7130194134     0.4978701128
C     0.4886155985     0.2916011605     2.6354229384
C     1.9009762003     0.0702551671     2.2795360622
C     -1.8757951594     -0.4781840038     2.1951217476
C     -0.50611796     -0.803118531     2.546005181
C     -2.6888402588     -1.4940350675     1.5657969269
C     -3.5007809446     0.1407653665     -0.0658569745
C     -3.0904231813     0.5314244519     -1.4037396148
C     -3.4222463072     -1.1640195104     0.3279853488
C     -1.1628117325     -0.1162821252     -2.7413710604
C     -2.4732637886     -0.4184184444     -2.2084157968
C     -0.3979441939     -1.3370689965     -2.7099247637
C     1.6440982718     -0.0175747928     -2.3940265021
C     2.917940057     0.0497874666     -1.6983869296
C     0.9938500401     -1.326965028     -2.4462150997
C     3.8318158644     -0.6325722159     0.3263393055
C     3.4610981698     -1.0563437884     -1.057726811
C     2.3210950793     -1.2744684577     2.1159977115
C     3.3559600684     -1.6019422321     1.1838045117
C     -0.030839481     -2.1734810805     2.327161929
C     1.3519897777     -2.359942488     2.0709734544
C     -2.2515473289     -2.8078262428     1.4542375254
C     -0.924197986     -3.1816746101     1.7912246573
C     -3.1302241556     -2.2110051438     -0.6460174408
C     -2.5343532091     -1.8250350131     -1.8666854061
C     -1.2676991178     -2.4191564481     -2.2595165239
C     -2.5632432984     -3.2938873712     0.0849182314
C     -0.4785688307     -4.0497298566     0.7250850791
C     -0.7299696097     -3.4898271903     -1.5380181681
C     -1.4460886485     -3.9593931742     -0.3711024293
C     1.56180624     -2.4927259245     -1.7215368882
C     2.7930213975     -2.3077202291     -0.9824959882
C     2.8826193035     -2.7319820849     0.3840902853
C     1.7683866261     -3.2824967336     1.0143962965
C     0.6811015069     -3.4805711324     -1.2180330422
C     0.7964704195     -3.895877583     0.1987325526


