60

 C     1.3597962395     3.9050670151     0.7703150538
C     1.7143331236     3.7715992138     -0.5675049737
C     2.7741330336     2.7829264287     -0.6743861922
C     2.1163155205     2.8969940415     1.5193164119
C     3.0107639305     2.2131634763     0.623140067
C     1.1891375751     2.1630483185     2.2666987999
C     -0.0115943287     3.8518016522     1.1578371294
C     -0.1480700765     2.7648152427     2.1090630347
C     -0.9914438418     3.9886743963     0.146165227
C     0.7076302095     3.4626907212     -1.570186831
C     -0.6178311535     3.6510704838     -1.2523178467
C     2.4339542838     1.9215300271     -1.7362092474
C     1.1114239603     2.245336404     -2.2589299164
C     2.8210288931     0.586631253     -1.6484914487
C     3.2048747305     0.8192261974     0.7745663511
C     3.3715428652     0.0599935462     -0.4344182917
C     1.3458628814     0.7590252665     2.4680872797
C     2.5135318968     0.1235063173     1.8657157076
C     0.1457417809     -0.0257875802     2.7388880583
C     -1.3205934521     1.9708551293     2.1731352618
C     -1.18845472     0.5207693013     2.4453350669
C     -2.2418909689     3.4221090995     0.3792240614
C     -2.452781368     2.4581146052     1.4138870711
C     -1.6191633435     2.7339790451     -1.7782838152
C     -2.7296457126     2.8259872736     -0.8828548849
C     0.1865138852     1.2085439929     -2.5747983189
C     -1.2452161396     1.4598089255     -2.3418744538
C     2.0356086547     -0.4342806684     -2.2864847781
C     0.6848143374     -0.1826281925     -2.6591274488
C     3.1936756097     -1.3676575032     -0.47769043
C     2.4432920966     -1.6866146331     -1.6973947928
C     2.5646491689     -1.2946954765     1.8691910306
C     2.9543435084     -2.080528441     0.6772748034
C     0.2923443415     -1.4320415322     2.7945759791
C     1.5503226828     -2.0228339925     2.4916116347
C     -0.7318602779     -2.357593794     2.3389967143
C     -2.1936303593     -0.3975262571     1.9680811587
C     -1.9274923964     -1.8375028723     1.8244728239
C     -3.3718249759     1.4957107007     0.8896152273
C     -3.4710398074     1.7173446521     -0.5823824471
C     -3.2371649851     0.1464939342     1.113412506
C     -2.1302121618     0.3079420078     -2.1220916251
C     -3.2398626107     0.4874534548     -1.2298842797
C     -3.4506761512     -0.5109630975     -0.1920823853
C     -0.2375927524     -1.3226071728     -2.6248132415
C     -1.6423541253     -1.0692349928     -2.3025626275
C     1.6299090039     -2.7808439185     -1.7574263919
C     0.3064550608     -2.6335389704     -2.3523458166
C     2.1436193555     -3.2924384307     0.6289871052
C     1.3237387254     -3.2848188874     1.7895899052
C     -0.0643347333     -3.5303731609     1.7359267308
C     1.5532232943     -3.6986974676     -0.6038812221
C     -0.4862440717     -3.6526490882     -1.7508814417
C     -0.5973916339     -4.1237628818     0.5612219243
C     0.2501265826     -4.2210821892     -0.5950229798
C     -2.5164482575     -2.5704725783     0.6984978403
C     -3.0666204081     -1.7752824092     -0.4011402698
C     -2.358758335     -2.1174378036     -1.630091446
C     -1.8683478161     -3.648250016     0.1095428432
C     -1.7741663677     -3.3700677159     -1.3568130641


