60

 C     0.641527114     -0.377738112     -4.0310584721
C     1.6284027738     0.478189697     -3.6133692703
C     0.9827749332     1.7544089919     -3.1917066414
C     -0.641527114     0.377738112     -4.0310584721
C     -0.4436787862     1.611156686     -3.3200067971
C     -1.6284027738     -0.478189697     -3.6133692703
C     0.4436787862     -1.611156686     -3.3200067971
C     -0.9827749332     -1.7544089919     -3.1917066414
C     1.2815091452     -1.9653325761     -2.2216362923
C     2.5811397831     0.0998668647     -2.644623314
C     2.4835898405     -1.1539476856     -1.958819017
C     1.6115970492     2.1803134435     -2.0382955738
C     2.7740886491     1.2932812153     -1.8272376031
C     0.8367827211     2.6211625541     -0.9031219871
C     -1.2815091452     1.9653325761     -2.2216362923
C     -0.6312797352     2.6129500464     -1.0626328796
C     -2.5811397831     -0.0998668647     -2.644623314
C     -2.4835898405     1.1539476856     -1.958819017
C     -1.6115970492     -2.1803134435     -2.0382955738
C     -2.7740886491     -1.2932812153     -1.8272376031
C     0.6312797352     -2.6129500464     -1.0626328796
C     -0.8367827211     -2.6211625541     -0.9031219871
C     1.3865179761     -2.7870981554     0.0996625392
C     3.1993050963     -1.2712330691     -0.6823041936
C     2.7536740588     -2.260895991     0.250696619
C     3.3497959577     1.2029536128     -0.614828475
C     3.8184400533     -0.0876633457     -0.1172716291
C     1.4527347177     2.5267557344     0.4024909817
C     2.7915250518     1.9667663013     0.505724381
C     0.6140356887     2.4331601851     1.5801370115
C     -1.3865179761     2.7870981554     0.0996625392
C     -0.7601587748     2.7669621622     1.4018087298
C     -3.1993050963     1.2712330691     -0.6823041936
C     -2.7536740588     2.260895991     0.250696619
C     -3.3497959577     -1.2029536128     -0.614828475
C     -3.8184400533     0.0876633457     -0.1172716291
C     -1.4527347177     -2.5267557344     0.4024909817
C     -2.7915250518     -1.9667663013     0.505724381
C     0.7601587748     -2.7669621622     1.4018087298
C     -0.6140356887     -2.4331601851     1.5801370115
C     2.9887979406     -2.1101149586     1.6439656839
C     1.7206781395     -2.3345307387     2.3312231705
C     3.9429982771     0.0775431215     1.2821559787
C     3.2174122944     1.3293961774     1.6567135515
C     3.5318906809     -0.9164018356     2.1600473102
C     0.9697138742     1.5400301     2.6788869172
C     1.4262901727     -1.2231518061     3.1764728038
C     2.2998699044     1.0139273491     2.7152580353
C     2.5297130266     -0.3310969517     3.086697349
C     -0.9697138742     -1.5400301     2.6788869172
C     -0.0930441057     0.7228537656     3.2549709832
C     0.0930441057     -0.7228537656     3.2549709832
C     -1.7206781395     2.3345307387     2.3312231705
C     -2.9887979406     2.1101149586     1.6439656839
C     -1.4262901727     1.2231518061     3.1764728038
C     -3.9429982771     -0.0775431215     1.2821559787
C     -3.2174122944     -1.3293961774     1.6567135515
C     -2.2998699044     -1.0139273491     2.7152580353
C     -3.5318906809     0.9164018356     2.1600473102
C     -2.5297130266     0.3310969517     3.086697349


