60

 C     -3.6424398139     -0.5840590892     -2.4959516355
C     -3.7623162167     -1.5458353754     -1.3942569797
C     -4.2083895817     -0.8312775057     -0.2965513214
C     -3.7712723415     0.7613571877     -1.945465604
C     -4.2507437232     0.6337425492     -0.6450572377
C     -2.5269703373     1.4728174919     -2.1855106614
C     -2.3877092033     -0.7131837108     -3.0569363639
C     -1.7303537057     0.5980730319     -3.0378386972
C     -2.5036107168     -2.2484214913     -1.2818245635
C     -1.6808322546     -1.7910830813     -2.3912898817
C     -1.8593162336     -2.4279340556     -0.0312849819
C     -3.5904367089     -0.9581611007     0.9697135057
C     -2.4777172098     -1.8342341082     1.1714314025
C     -3.6370012892     1.3202608221     0.4137030747
C     -3.5256698539     0.3827380965     1.5393517051
C     -1.8723653171     2.1860088138     -1.1377036254
C     -2.5180648434     2.2176769703     0.1757614006
C     -0.4112863297     2.3629983661     -1.2260943188
C     -0.367063947     0.6459806213     -3.0351311138
C     0.282133337     1.7500029952     -2.3291913379
C     -0.282133337     -1.7500029952     -2.3291913379
C     0.367063947     -0.6459806213     -3.0351311138
C     -0.3996881999     -2.6608947549     -0.0506031697
C     0.4112863297     -2.3629983661     -1.2260943188
C     0.2545482705     -2.7120877458     1.1960349251
C     -1.6494364108     -1.5876357747     2.346228707
C     -0.366170456     -2.2127272288     2.3868334468
C     -2.6868621494     0.6625455269     2.5852536479
C     -1.8074865271     -0.3748999966     3.0976386186
C     -1.7131604177     2.5047682676     1.3065477929
C     -1.9608440091     1.9027505724     2.562397065
C     0.3996881999     2.6608947549     -0.0506031697
C     -0.2545482705     2.7120877458     1.1960349251
C     1.8593162336     2.4279340556     -0.0312849819
C     1.6808322546     1.7910830813     -2.3912898817
C     2.5036107168     2.2484214913     -1.2818245635
C     1.7303537057     -0.5980730319     -3.0378386972
C     2.3877092033     0.7131837108     -3.0569363639
C     1.8723653171     -2.1860088138     -1.1377036254
C     2.5269703373     -1.4728174919     -2.1855106614
C     1.7131604177     -2.5047682676     1.3065477929
C     2.5180648434     -2.2176769703     0.1757614006
C     0.6953442669     -1.6582866517     3.1802580593
C     1.9608440091     -1.9027505724     2.562397065
C     -0.6281289152     0.3108550517     3.6095383423
C     -0.6953442669     1.6582866517     3.1802580593
C     0.366170456     2.2127272288     2.3868334468
C     0.6281289152     -0.3108550517     3.6095383423
C     2.4777172098     1.8342341082     1.1714314025
C     2.6868621494     -0.6625455269     2.5852536479
C     1.6494364108     1.5876357747     2.346228707
C     1.8074865271     0.3748999966     3.0976386186
C     3.6370012892     -1.3202608221     0.4137030747
C     3.5904367089     0.9581611007     0.9697135057
C     3.5256698539     -0.3827380965     1.5393517051
C     3.7623162167     1.5458353754     -1.3942569797
C     3.6424398139     0.5840590892     -2.4959516355
C     3.7712723415     -0.7613571877     -1.945465604
C     4.2083895817     0.8312775057     -0.2965513214
C     4.2507437232     -0.6337425492     -0.6450572377


