60

 C     2.5785265901     -2.9917939187     -0.1980641145
C     1.5149090415     -3.4646954212     -0.9381449834
C     0.4584513188     -3.9336273149     -0.0638220003
C     2.1546383205     -3.0088356981     1.2013338714
C     0.7861202263     -3.4673040701     1.2521504781
C     2.4728109974     -1.7709032943     1.7388198052
C     3.1300401516     -1.7032276642     -0.4982431904
C     3.2451909287     -1.0042603566     0.7308778822
C     2.7469140679     -0.9903781726     -1.7113971659
C     0.9418258057     -2.7082595704     -2.038720776
C     1.5770792953     -1.5074645239     -2.4766713316
C     -0.7631736186     -3.5577834631     -0.6676645019
C     -0.4792838025     -2.8027465024     -1.9145524056
C     -1.8121255488     -3.1752282531     0.1389228841
C     -0.1972042071     -2.7673992308     2.0356386192
C     -1.5384415135     -2.8628615129     1.5442870233
C     1.5762238177     -1.0696909408     2.6274886611
C     0.1891404778     -1.5370751127     2.7555654776
C     1.8779024972     0.3026062123     2.8141459369
C     3.3254225764     0.4112857518     0.774914145
C     2.7577903483     1.0655836231     1.8853005742
C     2.995359749     0.3892857775     -1.7247606999
C     3.3724863324     1.1045125154     -0.5016397615
C     2.1831420373     1.3122148164     -2.5213642079
C     0.7224460224     -0.5670165381     -3.1094626237
C     1.0328387134     0.847906503     -3.1423505025
C     -1.3397596834     -1.7546540678     -2.3425336272
C     -0.7076649365     -0.6980457112     -3.0582620345
C     -2.7971590368     -2.2132972454     -0.3406157034
C     -2.5764337193     -1.4639176619     -1.5804359254
C     -2.5254882049     -1.9227724321     1.9272958947
C     -3.362984196     -1.5957162358     0.7790211811
C     -0.842120729     -0.53865814     3.0449297396
C     -2.1779782246     -0.7319273721     2.5665144073
C     0.8778180325     1.193651048     3.2403440099
C     -0.4672858434     0.8291175989     3.2107388245
C     2.1876737285     2.3922112377     1.7340767059
C     1.046021305     2.4727210499     2.5505156159
C     2.8915190499     2.4193668911     -0.5983570874
C     2.1323078737     2.558980776     -1.8287135519
C     2.1699404492     3.0351770305     0.4613121066
C     0.9141703344     3.184045034     -1.5325348889
C     0.9184595508     3.4945388367     -0.0790137686
C     -0.2033401842     1.6000195275     -3.038311474
C     -1.281903359     0.6352741723     -3.0932547941
C     -0.2875916411     2.7472928309     -2.1806995499
C     -3.1256276701     -0.1701004616     -1.646165487
C     -2.4792216742     0.8829404502     -2.437319593
C     -3.634332986     -0.2016039272     0.7996148325
C     -2.9216949678     0.3682014365     1.9013035787
C     -3.6693422557     0.4850288537     -0.4386205034
C     -1.1847648471     1.9262662975     2.5276413143
C     -0.2007548128     2.876247906     2.0436606269
C     -0.2945327472     3.4097621576     0.6835383885
C     -2.3677498838     1.6893320702     1.8074478176
C     -1.5191801276     2.9383002554     -1.4640319376
C     -2.6140296097     2.1157965417     -1.7233889557
C     -3.3032010418     1.8370118981     -0.4723854648
C     -1.5108033831     3.2030080095     -0.0065600164
C     -2.5919953839     2.4535578048     0.5906625258


