60

 C     0.5828942724     -4.6596135393     0.019474695
C     -0.6121963038     -4.3327408367     0.7443976571
C     -1.602594044     -3.9903206553     -0.2007935368
C     0.4019716862     -4.1656846935     -1.3599023885
C     -0.9285917544     -3.8292550279     -1.5388357665
C     1.4036648068     -3.1782721207     -1.6406912284
C     1.638357783     -3.9272922331     0.5649645633
C     2.2505105113     -3.1017110772     -0.4531443082
C     -0.2856846725     -3.4001023507     1.8265143772
C     1.1679732204     -3.2470813408     1.7705147025
C     -1.0911302406     -2.2610166384     2.0749938493
C     -2.3869799484     -2.8724971758     0.0009142057
C     -2.288164227     -2.1099037233     1.2361355643
C     -1.3183327849     -2.5642825637     -2.0626400673
C     -2.406366254     -2.0918453547     -1.2495685891
C     1.0481743805     -1.9564537111     -2.3038333842
C     -0.3579267197     -1.5901962932     -2.510686343
C     1.9659028961     -0.8876888281     -2.1535285675
C     2.8906666617     -1.8888990601     -0.08319679
C     2.9425932449     -0.8662841901     -1.0743062005
C     1.7348434738     -2.0472004555     2.1065170505
C     2.7662366523     -1.4351538098     1.2772607461
C     -0.4726069902     -1.0032113721     2.5856912054
C     0.9346092566     -0.9676501251     2.6432740362
C     -1.1635679503     0.2901088138     2.5243059987
C     -2.9219490005     -0.8859254917     1.1960760638
C     -2.5040093158     0.2645231846     2.0158144427
C     -2.8408873245     -0.7814903011     -1.2746094974
C     -3.4701237988     -0.3489404672     -0.0436522287
C     -0.7588145963     -0.1817490493     -2.5477463566
C     -2.0975489873     0.1965453402     -2.0861651964
C     1.6174653719     0.4555822977     -2.4361991092
C     0.266584232     0.8636682371     -2.6136821136
C     3.2562394534     0.4823977598     -0.7595339096
C     2.5749498672     1.3103917665     -1.734929813
C     2.7826636417     -0.051097411     1.5677010792
C     1.6528206978     0.2535255208     2.441610997
C     3.2076056415     0.9213531615     0.6108143173
C     -0.4406521148     1.559189875     2.4550709131
C     1.0311056788     1.5184774594     2.432705888
C     -1.0841317939     2.74206377     1.8582191091
C     -3.1060395622     1.3987315562     1.4741727518
C     -3.6899509618     1.0017330507     0.1605886245
C     -2.4034711556     2.6070120017     1.2976043036
C     -2.3918790543     1.567663898     -1.8606926858
C     -3.2784150064     1.942283032     -0.7736950925
C     -2.6740146318     3.0471198901     -0.0649012191
C     -0.0464575258     2.2763174953     -2.3136588883
C     -1.3760424908     2.5859740712     -1.9395210526
C     -1.6147616838     3.5335396559     -0.8332532886
C     2.3036056369     2.6294258751     -1.4811177324
C     0.9923854619     3.1639577282     -1.831204193
C     2.8572295163     2.2665846667     0.8880097516
C     1.7943640665     2.582475935     1.8490475655
C     2.7060259096     3.1993082644     -0.1933233278
C     -0.2661283932     3.7409663655     1.2317469452
C     -0.5395735992     4.1196138217     -0.1613251919
C     0.7156825275     4.1457925693     -0.8220638596
C     1.1559188484     3.7680429273     1.3891500924
C     1.7759471894     4.1891899061     0.1591105303


