60

 C     -1.6112622091     -4.1874019707     -0.7801360752
C     -0.3476647396     -4.3970706845     -0.17843053
C     -0.3870186529     -3.886878479     1.1869875767
C     -2.3963181808     -3.4187483463     0.1648811322
C     -1.6444173854     -3.1804446663     1.3607871904
C     -2.9879894131     -2.3124480461     -0.5093519654
C     -1.3819997177     -3.272515262     -1.8537792695
C     -2.2716446136     -2.1463916061     -1.7732229493
C     0.6974359679     -3.9043436371     -1.0446920851
C     0.0398964964     -3.0755315104     -2.0487416734
C     1.8734330238     -3.4494962123     -0.4570049029
C     0.7724695661     -3.3502830481     1.7365633714
C     1.9735520915     -3.3998932884     0.9837628623
C     0.7454835862     -2.0318906671     2.4256150925
C     -1.6741993933     -1.8766597601     1.9928306576
C     -0.4240495655     -1.2555783619     2.5030089715
C     -3.2623689799     -1.1884067988     0.2329483949
C     -2.6813102023     -0.9976192819     1.545930394
C     -3.2695846467     0.0921718813     -0.4088713891
C     -1.8437192401     -0.8626330555     -2.1704418765
C     -2.5419465341     0.3076422703     -1.6067985466
C     0.5275223156     -1.7911261843     -2.3762098042
C     -0.4496748428     -0.7107556098     -2.6073296103
C     2.5304924142     -2.2739488005     -0.9932975987
C     1.8946974862     -1.4275530528     -1.9386796624
C     2.7352912244     -2.2343499925     1.3102458752
C     2.0262814515     -1.4015598648     2.2296614727
C     3.2667708926     -1.6624939801     0.1222626417
C     2.1768270978     0.0116395892     2.1703682545
C     -0.2819401027     0.2253147787     2.5894777075
C     1.0245803253     0.8587964303     2.445842713
C     -2.6039642955     0.4175888248     1.7700572427
C     -3.219688119     1.0760433179     0.6467176441
C     -1.4744425628     1.0430632372     2.3928392975
C     -2.9539778372     2.3940322861     0.3625104032
C     -2.0394753177     1.6604873447     -1.846424418
C     -2.440957412     2.7384600388     -0.980091864
C     0.0305683608     0.6004192414     -2.7385778598
C     -0.7796913842     1.7794731965     -2.5014840845
C     2.3348897723     -0.0290092354     -2.0195352937
C     1.4363517619     0.9401901652     -2.5460118302
C     3.5409418631     -0.3247120956     0.1340304603
C     3.2080248405     0.4917035381     1.2876794544
C     3.3075249383     0.4653677283     -1.0777212768
C     3.1420958639     1.8110475397     0.8027010393
C     3.2750081504     1.8020234449     -0.671096893
C     1.0993585754     2.2865177242     2.0663123002
C     2.1750138448     2.727171752     1.1757555956
C     -1.3677116407     2.4574641656     2.1995818423
C     -2.2902295348     3.172624521     1.3494442167
C     -0.0642008164     3.0741067807     2.0404842503
C     -1.5858610057     3.8501540505     -0.7771578268
C     -1.5488141866     4.1709845453     0.6461211493
C     -0.2126203748     4.137445834     1.0471847126
C     0.1183795979     2.8628509267     -2.1874551622
C     1.4838030953     2.3264231427     -2.1775573407
C     2.3777865914     2.7546179499     -1.1843406202
C     1.8402727881     3.5074934396     -0.0392700229
C     -0.2502091397     3.8709198119     -1.2966310694
C     0.634197763     4.1355035011     -0.1322506155


