60

 C     -2.2153594771     -3.8808705826     0.144470471
C     -0.899161835     -4.0876146633     0.6184205352
C     -0.6367550203     -3.2837315128     1.7712032512
C     -2.7783976422     -2.8358783386     0.939606078
C     -1.8257683376     -2.4332666076     1.9318099647
C     -3.1544591646     -1.7620466762     0.0747838693
C     -1.9902070066     -3.2863965947     -1.159654571
C     -2.630883232     -2.0407855481     -1.2583548879
C     0.0602221486     -4.0653262201     -0.4838600812
C     -0.6181005445     -3.3857364164     -1.5831689219
C     1.3663268065     -3.7374401988     -0.199796863
C     0.6784437918     -2.764768412     1.9759668241
C     1.7310818305     -3.1195152387     1.0827593792
C     0.7660687358     -1.4712723101     2.606700991
C     -1.6971365936     -1.0508962929     2.3245431496
C     -0.4337921263     -0.6510642118     2.7921290081
C     -3.2438078464     -0.4233651401     0.5199464763
C     -2.5462107737     -0.0012176969     1.7123422708
C     -3.389334332     0.5048875529     -0.5476046502
C     -2.0562730411     -0.969409471     -2.0309153693
C     -2.6488116258     0.2720451244     -1.8049585873
C     0.027314522     -2.2927946547     -2.2754318796
C     -0.6819624945     -1.0220143621     -2.4940032858
C     2.1143294561     -3.0729244017     -1.2163496589
C     1.450619684     -2.2637373579     -2.1716910673
C     2.7985644034     -2.1787833987     0.8021792557
C     3.1069337996     -2.2534190184     -0.588166791
C     1.848344527     -0.5962145648     2.4157784053
C     2.8915677015     -0.8887956581     1.4719843781
C     -0.040764534     0.7298731763     2.8301065695
C     1.3634169897     0.7790820858     2.5972860516
C     -2.2281449464     1.4138264803     1.874639053
C     -0.9160397739     1.7845064847     2.4453985309
C     -3.364100449     1.8523021592     -0.2742325874
C     -2.8322133612     2.3478034456     0.9525577872
C     -2.0322256475     1.4993707183     -2.182527046
C     -2.6585109925     2.5336324071     -1.3820541404
C     0.0486493806     0.2446748802     -2.6389436863
C     -0.639652316     1.5325456502     -2.4674144639
C     2.1839692382     -1.0017089848     -2.2842131136
C     3.2868448373     -1.0666882171     -1.338759517
C     1.5130681201     0.2178796915     -2.5348547438
C     3.4806188094     0.1970608061     0.7738034188
C     3.6769522074     0.085914733     -0.6581296233
C     1.9695853688     1.8790418555     1.9490340231
C     3.0578769063     1.5906987789     1.0296313169
C     -0.2672383204     2.9978517872     2.0447523531
C     1.1280447229     3.0037479756     1.6924748283
C     -2.1693147049     3.5908971159     0.598381694
C     -1.9857061957     3.6035960273     -0.892424832
C     -0.9391686072     3.874203863     1.109288211
C     0.0931627213     2.7656412014     -2.0097414355
C     1.2682433234     3.7502501945     0.4197495269
C     -0.5892937575     3.7716299088     -1.2052954698
C     0.0092899107     4.1895622022     0.022944265
C     2.1998929387     1.4174611345     -2.0997846024
C     3.3041420431     1.3205678722     -1.2312744267
C     3.1224910203     2.3047469348     -0.1773666233
C     1.4740589896     2.6402550452     -1.7670424222
C     2.0886698652     3.1921253589     -0.566656389


