60

 C     1.1240329444     -3.867793104     0.5445235995
C     -0.0850048101     -4.0834635268     -0.0595073288
C     -1.1482947455     -3.7638491418     0.8976662042
C     0.850793565     -3.2450542633     1.8663598802
C     -0.5514340365     -3.0689839016     2.0083914771
C     1.7333342987     -2.1890158421     2.0187345795
C     2.1602064937     -3.1310393194     -0.1008242449
C     2.7248547519     -2.2760176034     0.9281648822
C     1.9595284922     -2.6039880937     -1.4197409215
C     -0.407514491     -3.4466011523     -1.3203539391
C     0.6005818669     -2.6906699614     -1.9953037352
C     -2.1981868082     -3.1864745002     0.1929076015
C     -1.7631279571     -2.9544081501     -1.2043366351
C     -2.9496688357     -2.1980695845     0.8414232614
C     -1.0603675687     -1.7717768918     2.4055262616
C     -2.3709414362     -1.4671156321     1.9442331464
C     1.2975435224     -0.8871148878     2.4824560617
C     -0.120979643     -0.6615873184     2.6699823436
C     2.2085574944     0.2323804468     2.2246782005
C     3.4689745431     -1.1768636943     0.5878244039
C     3.2939634378     0.0828330036     1.3046826439
C     2.7735607895     -1.4595022858     -1.7533252507
C     3.6332429345     -0.8923459779     -0.7995039642
C     2.2379503324     -0.3186883325     -2.4986172597
C     0.1257298068     -1.5520122729     -2.7368712836
C     0.9479800671     -0.3662111781     -2.9402961219
C     -2.1870590374     -1.7743131788     -1.8728287088
C     -1.2131508066     -1.1026194479     -2.6661320859
C     -3.6465374495     -1.2509076967     0.039805328
C     -3.2224958984     -0.957632328     -1.262326839
C     -2.8528246049     -0.0860743691     1.848343244
C     -3.7408304718     -0.0001044305     0.7653772665
C     -0.6341076528     0.7336109457     2.6674892141
C     -2.0126533917     1.0249440536     2.2032159196
C     1.7095184156     1.5565292981     2.4185700628
C     0.2892390456     1.7935474259     2.6467112967
C     2.2058449765     2.6365662303     1.6517008429
C     3.5782848497     1.1444237146     0.3608206355
C     3.6555513007     0.5573945557     -0.9362072975
C     2.7712111302     0.9471232089     -1.9485460986
C     2.9498585425     2.3848476285     0.4715545097
C     1.9363044352     2.1144098353     -1.7857803425
C     2.1757257133     2.9247565215     -0.6417216153
C     0.1036688941     0.8204061175     -2.9265223598
C     -1.2227154779     0.369011345     -2.7960264069
C     0.5605952029     2.0736932917     -2.3586575773
C     -3.2328455913     0.5144068267     -1.4167020928
C     -3.6470487057     1.0792791425     -0.1542020616
C     -2.2265048243     1.1773038131     -2.1726414573
C     -2.3031188684     2.258852143     1.5589916991
C     -3.0779039359     2.2642488281     0.3089665756
C     -0.0427469482     3.0928734819     2.046075858
C     1.117514876     3.5351047273     1.3481092434
C     1.0953199088     3.7246443752     -0.0609845473
C     -1.2825235837     3.2855025803     1.4408531867
C     -0.4285997728     2.9417836214     -1.8699527428
C     -1.8269970838     2.5107966203     -1.7854660502
C     -2.3656382432     3.0752459723     -0.6057203255
C     -0.1524489321     3.7900125194     -0.7022806785
C     -1.3152011197     3.7837656929     0.0972408426


