60

 C     0.6161458432     -4.2165415653     0.
C     -0.0188283447     -4.00674695     -1.2172782925
C     0.8972923418     -3.2290284418     -2.0361242618
C     1.9273485862     -3.4605506824     0.
C     2.0233632821     -2.781935724     -1.2247901472
C     2.0233632821     -2.781935724     1.2247901472
C     -0.0188283447     -4.00674695     1.2172782925
C     0.8972923418     -3.2290284418     2.0361242618
C     -1.2919749448     -3.3304563008     1.2459902885
C     -1.2919749448     -3.3304563008     -1.2459902885
C     -1.9354651235     -2.9486519004     0.
C     0.1715063545     -2.2958925925     -2.7633469626
C     -1.213247391     -2.3587480525     -2.309709897
C     0.7768113444     -1.0608886802     -3.1457170345
C     2.420064413     -1.4033808008     -1.2666746984
C     1.9716680044     -0.6202343741     -2.4180488676
C     2.420064413     -1.4033808008     1.2666746984
C     2.6974144293     -0.7284973628     0.
C     1.9716680044     -0.6202343741     2.4180488676
C     0.1715063545     -2.2958925925     2.7633469626
C     -1.213247391     -2.3587480525     2.309709897
C     0.7768113444     -1.0608886802     3.1457170345
C     -1.9837975626     -1.1577169164     2.3033310658
C     -2.6865092971     -1.7156340071     0.
C     -2.7817734849     -0.8677913108     1.1559069713
C     -1.9837975626     -1.1577169164     -2.3033310658
C     -2.7817734849     -0.8677913108     -1.1559069713
C     -0.1448548973     -0.0802824825     -3.6065380303
C     -1.4864267674     -0.0686580079     -3.0623034015
C     0.2507594703     1.2777054448     -3.725564729
C     2.2422411752     0.7821719638     -2.4182320713
C     1.4438799593     1.6977163481     -3.2008023451
C     2.7558795966     0.7354720499     0.
C     2.5540450431     1.4508409668     -1.2078497775
C     2.2422411752     0.7821719638     2.4182320713
C     2.5540450431     1.4508409668     1.2078497775
C     1.4438799593     1.6977163481     3.2008023451
C     -0.1448548973     -0.0802824825     3.6065380303
C     -1.4864267674     -0.0686580079     3.0623034015
C     0.2507594703     1.2777054448     3.725564729
C     -1.8391600111     1.3249631157     2.7280019219
C     -0.8265812141     2.1611174803     3.213000907
C     -2.968378158     0.4943456108     0.7169092661
C     -2.968378158     0.4943456108     -0.7169092661
C     -2.4763004115     1.6083913216     1.4587472061
C     -1.8391600111     1.3249631157     -2.7280019219
C     -0.8265812141     2.1611174803     -3.213000907
C     -2.4763004115     1.6083913216     -1.4587472061
C     1.1910119218     2.9176002444     -2.4129664815
C     1.8733767946     2.7862615963     -1.2185151357
C     -0.2405201362     3.1738032246     -2.4028590129
C     1.8733767946     2.7862615963     1.2185151357
C     1.1910119218     2.9176002444     2.4129664815
C     -0.2405201362     3.1738032246     2.4028590129
C     1.3184337182     3.3135485868     0.
C     -2.0144337499     2.7514756536     0.7321208499
C     -2.0144337499     2.7514756536     -0.7321208499
C     -0.8560616605     3.4790997639     -1.1763536733
C     -0.8560616605     3.4790997639     1.1763536733
C     -0.0406102981     3.7333904756     0.


