60

 C     0.3384585197     -4.484286133     0.8329718626
C     -1.0454565416     -4.1656987934     0.6127414482
C     -1.2276300958     -3.9420156201     -0.7596491225
C     1.0546862308     -4.2061288668     -0.4378674484
C     0.1046275754     -3.8841432832     -1.4106415535
C     2.083869114     -3.2546025065     -0.228639486
C     0.8115468031     -3.501037275     1.7024074795
C     1.9968939459     -2.8697711771     1.190190099
C     -1.4383661091     -3.0601376931     1.4988977614
C     -0.24660997     -2.6126837097     2.1691347935
C     -2.3892914152     -2.1099422711     1.0951955088
C     -1.9941473776     -2.8615161838     -1.2242065123
C     -2.7961543385     -2.1199498736     -0.3223596452
C     0.1488331591     -2.6705788068     -2.1707496412
C     -1.1680929191     -2.0971389334     -2.1523490706
C     2.3153231347     -2.1987303022     -1.1741924161
C     1.2772545758     -1.7969423199     -2.1157343843
C     3.1887982537     -1.2081015498     -0.700117918
C     2.3376424976     -1.5922519204     1.6090032796
C     3.322318508     -0.9898840831     0.7572442922
C     0.0055166718     -1.2323952848     2.4149772948
C     1.3692534979     -0.7137803831     2.2780922377
C     -2.3658328847     -0.8188883916     1.7640206271
C     -1.119169933     -0.3207950037     2.345755678
C     -3.3686148627     0.1208823078     1.3437286293
C     -3.3188822268     -0.9336159278     -0.8628444078
C     -3.9006617278     0.0127879451     -0.0071201372
C     -1.3842217153     -0.7045201269     -2.3689665597
C     -2.6329721501     -0.2119705593     -1.9171534785
C     1.1053561206     -0.364368815     -2.4034373525
C     -0.2435825144     0.1877963708     -2.5349045744
C     3.3339788994     0.0425400925     -1.332710905
C     2.2339018396     0.5323168755     -2.1442385791
C     3.7414678859     0.2870180822     0.9818033821
C     3.954532404     0.9152685771     -0.3383329599
C     1.6155374602     0.7102492438     2.2579176261
C     2.9006692259     1.1812692105     1.7520133609
C     -0.8762068488     1.1227292633     2.4126166892
C     0.477176002     1.6459828511     2.2541301242
C     -3.2354549945     1.4795366692     1.6491104692
C     -1.994002152     1.99776306     2.1347557464
C     -3.8322716886     1.30818788     -0.6164846636
C     -2.8898935166     1.2040948935     -1.7078377817
C     -3.6037092982     2.2370315255     0.4240432078
C     -0.4889722598     1.617324595     -2.3346048236
C     -1.8109241369     2.118136646     -1.8421953966
C     1.9914346439     1.9481291273     -2.1100087693
C     0.6383330233     2.4479832395     -2.1553207611
C     3.6198672419     2.2268412102     -0.2448140589
C     2.9992524012     2.4425464982     1.1080656319
C     2.7584133242     2.8050745584     -1.2100889766
C     0.6570255615     2.958296131     1.6184631623
C     0.5744510181     3.5389276304     -1.1826589154
C     1.8740548557     3.2456315929     0.9297530698
C     1.8186979659     3.5879474562     -0.5021259504
C     -1.7547582359     3.2229435114     1.4324347013
C     -2.6609767473     3.2168237711     0.2399524807
C     -1.8160518833     3.236688528     -0.9046929099
C     -0.4923429068     3.5907237697     1.0463793272
C     -0.5539207105     3.7364025809     -0.4387508116


