60

 C     0.8181847278     -4.3130116379     -0.131240685
C     1.9967995926     -3.6980081089     0.2213417811
C     2.4719154073     -2.9214685288     -0.9185655186
C     0.514317315     -3.9216679956     -1.5335812414
C     1.4362910615     -2.8903698445     -1.9296039244
C     -0.8341229549     -3.6742739936     -1.6043772538
C     -0.3798890867     -4.1324318092     0.6656772973
C     -1.4403897581     -3.8745401263     -0.2511864079
C     -0.318416862     -3.3135474035     1.8208250415
C     2.0867682476     -2.8365117294     1.3922338582
C     0.9437132343     -2.6580380047     2.1845625461
C     2.9922122893     -1.7340077976     -0.4474895034
C     2.810533873     -1.6590201406     1.0203823336
C     2.8491147859     -0.551510407     -1.2115565439
C     0.9568009554     -1.6226495974     -2.4199701844
C     1.781265364     -0.4302095533     -2.1813870895
C     -1.3590712251     -2.4908457272     -2.1705688942
C     -0.4816378615     -1.4216717581     -2.5864944774
C     -2.3913143264     -2.8764275125     -0.0560966254
C     -2.4998112485     -2.1545682184     -1.3363313974
C     -1.3666514044     -2.3582701184     2.0814984766
C     -2.4289682345     -2.097489004     1.162719818
C     0.6481134384     -1.3526183426     2.7566935281
C     -0.7831626448     -1.2426315544     2.8148844564
C     2.5932183643     -0.4000009117     1.6432380068
C     1.4507821366     -0.2038782173     2.5319794581
C     3.314952059     0.5987441171     -0.5256219523
C     3.0768965226     0.7201319299     0.9385173536
C     3.1251868156     1.8312389345     -1.0789223099
C     1.2737782353     0.9113740643     -2.4630121603
C     2.0927066414     2.0283606797     -2.0588505741
C     -1.0348435514     -0.0598573686     -2.6211643126
C     -0.16585107     1.1224635981     -2.5881532181
C     -3.02174268     -0.9129994261     -1.3727616735
C     -2.3964904176     0.1060119346     -2.2140657063
C     -3.0261208739     -0.7541401221     1.1205710992
C     -3.5081808247     -0.2653056169     -0.1543829922
C     -1.3675845433     -0.001789601     2.805495877
C     -2.5751172079     0.2453155198     2.0339658936
C     0.8474260086     1.1407972748     2.6255320487
C     -0.5550828535     1.1923227722     2.8282073239
C     2.6966702992     2.0621797836     1.229492879
C     2.9316262293     2.8096871034     0.0194831059
C     1.501812159     2.3155933135     2.0134164084
C     1.5160410581     3.2939804943     -1.7335626649
C     2.0780204798     3.7804242804     -0.4192777541
C     -0.7315252078     2.4157021495     -2.1703334387
C     0.1402218256     3.4659356794     -1.6924709446
C     -2.8744377379     1.3366866942     -1.7256323352
C     -3.5349483959     1.1003160337     -0.4344123744
C     -2.0549878676     2.4576427734     -1.6256998699
C     -2.5778236146     1.6475217113     1.71424596
C     -1.361806977     2.2519110848     2.2641847409
C     -3.0762610506     2.0935607709     0.4724292138
C     -2.2844799233     3.0396688101     -0.2798379494
C     0.6942375455     3.4403189063     1.6153819153
C     0.9993533459     4.1620364799     0.3963655306
C     -0.1722229846     4.1598279923     -0.4285602643
C     -0.7578912617     3.3268663465     1.6494294612
C     -1.2781253673     3.7671390455     0.3424167284


