60

 C     -0.5621978465     -4.4897423477     0.1237016005
C     -1.620690284     -3.8416290212     -0.51730686
C     -1.1236114147     -3.1154917623     -1.6822724733
C     0.6268392457     -4.1821112322     -0.5954247472
C     0.3072755396     -3.3287769636     -1.720757362
C     1.6240710092     -3.7296288978     0.3208652586
C     -0.4121504959     -3.8096385268     1.4194398036
C     0.9031064783     -3.3332883845     1.5561768657
C     -2.3616146378     -3.0710502791     0.4666011823
C     -1.5016948054     -2.9123239767     1.6310548634
C     -3.1197549784     -2.0288248247     0.0227244566
C     -1.7045086425     -1.8691002096     -2.0251834252
C     -2.9349643079     -1.5341945638     -1.33938494
C     -0.8495199768     -0.760748745     -2.4985259122
C     1.1817686996     -2.2695985943     -2.0886451824
C     0.5894881535     -0.989624022     -2.5536739697
C     2.618624376     -2.9106558398     -0.1573156205
C     2.4612236681     -2.230992772     -1.4318121267
C     3.2127699061     -1.975664634     0.7671625278
C     1.1496480511     -2.0310782733     2.1453118604
C     2.4086126916     -1.4573743154     1.8252549942
C     -1.3244993245     -1.6017158214     2.206889378
C     0.0226025429     -1.1491834397     2.502293587
C     -3.3380409271     -0.8899350964     0.8941911224
C     -2.3859739975     -0.6258427943     1.9481270891
C     -3.3636337416     -0.2089207198     -1.3049093148
C     -3.7510640016     0.1651918325     0.0620609182
C     -1.3508243485     0.621651565     -2.4401916482
C     -2.6367699769     0.8605686742     -1.8534787952
C     -0.4366108408     1.7651563758     -2.4610099616
C     1.4383750909     0.1574537595     -2.5899710671
C     0.9398767182     1.5087066229     -2.5627417806
C     3.1767824069     -0.9834331885     -1.3003812672
C     3.6717499624     -0.8580806062     0.0391929938
C     2.7053183511     0.1680558845     -1.9191983138
C     2.6053997509     0.0027040516     1.8685917974
C     3.4300892055     0.3642223722     0.7687615972
C     0.2691260455     0.2847996727     2.6846661298
C     1.5910111055     0.8591548627     2.3639436971
C     -2.1328529211     0.7418903868     2.232732597
C     -0.8288909822     1.17873961     2.6605860672
C     -3.4066663321     1.5068107862     0.2888392152
C     -2.8702754166     2.0266140508     -0.9775198212
C     -2.7274498903     1.8271858109     1.4709860477
C     -0.823469112     3.0371411847     -1.8325041879
C     -2.0072171742     3.0741273673     -0.9598508599
C     0.1286047398     3.8913485186     -1.2814354342
C     1.9269524243     2.3523511594     -1.8828349348
C     2.9123763766     1.4945664082     -1.3305168013
C     3.2074510495     1.5821945854     0.0774874183
C     1.511265149     3.5162915993     -1.1980718525
C     1.7076911716     2.2234510599     1.9773682207
C     2.5419566049     2.5948749546     0.8356025105
C     1.8841752586     3.6481832668     0.1704206954
C     -0.6842062917     2.5924980068     2.3078177862
C     -1.8224831606     2.954881537     1.4903129678
C     -1.6168634578     3.7036586637     0.3084253013
C     -0.3412414696     4.2808765904     0.0772763665
C     0.5744019374     3.1346120041     2.0327539112
C     0.7111069464     4.0686863277     0.9572977313


