60

 C     0.5758810014     -5.0182360705     0.2163090564
C     -0.5176797913     -4.7125431497     0.990453738
C     -1.5491884584     -4.0920372351     0.1780906607
C     0.2702388103     -4.5505183951     -1.1741375023
C     -1.0391495635     -3.9274038389     -1.1840108669
C     1.3446241281     -3.7851542601     -1.5801778804
C     1.6905930553     -4.2409061265     0.7159397922
C     2.2502640238     -3.591644398     -0.3853114087
C     -0.1614850913     -3.772080655     2.0583301148
C     1.2130029247     -3.3932001051     1.841613602
C     -2.0513964607     -2.9918118286     0.8879017266
C     -1.1406894449     -2.7653618305     2.0523756607
C     -2.5524021485     -1.8756755312     0.1978015362
C     -1.2341585789     -2.6617130637     -1.7994837698
C     -2.2706159988     -1.7948252609     -1.2336285531
C     1.1757496494     -2.5109394753     -2.1826826323
C     -0.1058275073     -1.9528650795     -2.4266151565
C     2.600904079     -2.2382715071     -0.3480741278
C     2.1409122235     -1.6163386546     -1.5714101653
C     1.5664805429     -2.0222274867     1.9054985171
C     2.4541264922     -1.4554704344     0.8713126931
C     -0.8095993049     -1.4318820774     2.3630959654
C     0.5858890192     -1.0637723215     2.4175234055
C     -2.7370189625     -0.6459200499     0.9523235191
C     -1.8038760055     -0.4119429327     2.05947135
C     -3.2367430219     0.4745422353     0.2628365104
C     -2.4908973913     -0.5563806528     -1.8424827515
C     -3.2225681838     0.4512326283     -1.1775954171
C     -0.17326442     -0.5049301114     -2.6637380888
C     -1.4344232388     0.1097987847     -2.627719668
C     2.0547695449     -0.2403686335     -1.6743629897
C     0.9777188898     0.3707576445     -2.4180830508
C     2.6151881348     -0.0700380113     0.7404556803
C     2.699132239     0.5077198586     -0.6130661592
C     0.9218266656     0.3369939393     2.4749282312
C     2.1047264234     0.829379878     1.7814803349
C     -1.4913391925     0.9022758153     2.4164410494
C     -0.1187997549     1.2738640323     2.7107346538
C     -2.937371022     1.8318075569     0.6837663494
C     -2.1119911058     2.0452167045     1.7867288459
C     -2.7411781306     1.7184678107     -1.6169462072
C     -1.5948475297     1.525175353     -2.4664784898
C     -2.6926705048     2.6256857416     -0.5215953861
C     0.8513173262     1.8153034274     -2.3713364535
C     -0.4890366799     2.4159141133     -2.3632681572
C     2.7693067523     1.8683617486     -0.7796451279
C     1.924297229     2.5491960671     -1.7501733361
C     2.3022513294     2.2081633407     1.6396555574
C     2.8834955494     2.7259967565     0.3923283552
C     0.0453434602     2.6828583596     2.449127937
C     -1.1843277518     3.1615507043     1.8244407218
C     1.2970030086     3.1757848196     2.0402549003
C     -1.7158512908     3.6107151817     -0.5326451369
C     -0.692411261     3.6189524241     -1.5842826162
C     -1.0840239937     4.0290596573     0.7176514861
C     1.7316382883     3.8738171521     -1.2290079703
C     2.3857408787     3.975295729     0.0912973111
C     1.3479278648     4.2701008256     1.0795511423
C     0.4192600607     4.3208751033     -1.0687149663
C     0.1852219947     4.5895957838     0.3869537316


