60

 C     -2.9159887644     -3.2381187169     0.2796898498
C     -2.0051125517     -3.4939925614     -0.8115808151
C     -0.7384089082     -3.9569575011     -0.3153250723
C     -2.084495799     -3.1843544395     1.4329466771
C     -0.7832979242     -3.7459719669     1.1420290128
C     -2.1812106319     -1.8876700513     2.0530070957
C     -3.4542870256     -1.9405181467     0.0884192385
C     -3.085581679     -1.1262038926     1.2217349694
C     -2.0525455619     -2.4047297003     -1.7363225973
C     -2.9805647697     -1.4340992448     -1.1662202958
C     -0.8716991035     -1.9505146634     -2.3926488894
C     0.4094409069     -3.5961091432     -1.0121107219
C     0.3397516534     -2.6734056215     -2.1309904055
C     1.6522751645     -3.3240945159     -0.2966765747
C     0.3140885643     -3.1928422875     1.7726853888
C     1.6048074954     -3.1269246714     1.0870590817
C     -1.0271619362     -1.2506116803     2.6024432113
C     0.1963720351     -1.9871669066     2.5824891939
C     -0.974895211     0.213841444     2.6328145421
C     -2.9544960962     0.2644516828     1.0918442925
C     -2.0759655523     0.958464686     2.0218149362
C     -2.8159174096     -0.0418640042     -1.3671146132
C     -3.1316032514     0.8353166544     -0.2424909987
C     -0.7874244028     -0.5358634547     -2.7696494734
C     -1.8281162093     0.3984723224     -2.3354292283
C     0.4997631316     0.0127674738     -3.0183625843
C     1.6125774166     -2.0122764811     -2.2257409642
C     2.4557030258     -2.4318548964     -1.1120046327
C     1.7003230285     -0.7105213937     -2.7138817587
C     3.3370896406     -1.526262958     -0.535787149
C     2.3645825924     -2.0572275049     1.6740425229
C     1.4557349093     -1.3054231731     2.5241014802
C     3.3231317543     -1.3707913343     0.9172667357
C     0.3116723837     0.8741867639     2.7758401955
C     1.5426344031     0.1167837045     2.6438765354
C     0.3897856415     2.2941678285     2.4938553297
C     -1.9663813373     2.3790514576     1.8635011851
C     -0.7325723718     3.0332067523     2.1839146496
C     -2.9121587602     2.2210060697     -0.3965997276
C     -2.4873392165     3.0088035446     0.7057320953
C     -1.554705205     1.8078339694     -2.4070393551
C     -2.2060277234     2.6967110234     -1.547363829
C     0.8019302859     1.4221830528     -2.8072651067
C     -0.1964206874     2.3176999239     -2.5643482406
C     2.6782880719     0.2265361693     -2.1676383534
C     3.5151824602     -0.1920143322     -1.1214847565
C     2.1002560241     1.5435830862     -2.1640572865
C     3.5414268958     -0.0025988043     1.2027196423
C     2.694573739     0.7434876636     2.0299500988
C     3.7193088846     0.7287883343     -0.0636085656
C     1.4851761056     2.8279696626     1.658034157
C     2.2450549527     2.4457199905     -1.0634526585
C     2.5579273452     2.0545245638     1.3867643484
C     3.075630377     1.971661186     0.0129730128
C     -0.4101585539     3.9882196745     1.0908942564
C     -1.4944894007     4.0063482395     0.2190616076
C     -1.2781514171     3.7746983719     -1.1455643724
C     0.0083869434     3.4378006525     -1.6353452283
C     0.8987505344     3.6990707455     0.6311005832
C     1.1555511941     3.3976273537     -0.7565013706


