60

 C     -0.8724265264     -4.2657637897     0.5430282773
C     -1.7736622471     -3.7358999834     -0.3603764194
C     -1.0059353808     -3.1972347472     -1.5291667066
C     0.434565958     -4.1320200565     0.0135945787
C     0.3745021186     -3.4825155178     -1.2951275427
C     1.2425865184     -3.5304714704     1.0147112132
C     -0.9344454723     -3.4137018169     1.768611181
C     0.354269575     -2.9095671021     2.0279915402
C     -2.6449310429     -2.8361216709     0.349407976
C     -2.0338493378     -2.5421376049     1.6698011204
C     -3.2324651128     -1.8419148695     -0.3644706609
C     -1.396010986     -1.984380517     -2.1210333565
C     -2.7197143704     -1.5003621018     -1.7253565619
C     -0.3872976332     -1.003423881     -2.5503655092
C     1.3823247999     -2.5574672387     -1.67497346
C     1.0262295682     -1.3032898995     -2.3448369732
C     2.3445700426     -2.8493558157     0.6028548745
C     2.5489689094     -2.5514178478     -0.8156010255
C     2.8391759384     -1.7224601644     1.3718969318
C     0.5590867441     -1.5270117867     2.3742228574
C     1.8941711756     -0.9418832798     2.1229369157
C     -1.9184862814     -1.1848561423     2.0769138059
C     -0.6095479754     -0.6730376321     2.49630411
C     -3.6002829663     -0.6185804383     0.2866234433
C     -2.9150651833     -0.2568766292     1.5197764016
C     -3.0806594541     -0.1949379692     -1.9255025823
C     -3.7661994234     0.3418565276     -0.7410667471
C     -0.8098764234     0.3977818081     -2.7108831902
C     -2.1446157543     0.800501866     -2.3711409131
C     0.1516954482     1.4352052143     -2.634537237
C     2.0172055262     -0.1977622614     -2.3490596171
C     1.5518866807     1.1400664518     -2.4821493466
C     3.4704424967     -1.5149270507     -0.8570359373
C     3.7837170899     -1.0972953994     0.52183925
C     3.283102954     -0.351385535     -1.6559606457
C     3.9277727057     0.2694721399     0.5101305781
C     3.8017931772     0.7481301006     -0.886049907
C     2.0621458484     0.5197717835     2.1208175486
C     3.1452696321     1.0930569264     1.3492650623
C     -0.4163559601     0.7772037295     2.6199802964
C     0.9162699898     1.3655859435     2.4206647687
C     -2.7452285637     1.1077331488     1.7512532228
C     -1.5643481763     1.6140599213     2.4552409424
C     -3.3639714763     1.6627895308     -0.5759347588
C     -2.4146889956     2.0186399541     -1.6563191149
C     -3.0981614085     2.1039637325     0.7412851664
C     -0.1342815977     2.7188160065     -2.0382650452
C     -1.3971982303     2.9841194245     -1.4286835853
C     2.1492671479     2.2550473564     -1.7760677904
C     3.1782052073     1.9865171784     -0.8494350546
C     2.9104580871     2.3056993772     0.5715679552
C     1.1074342458     3.178460116     -1.441507438
C     0.9924017294     2.7577654859     2.0030072493
C     1.8882726129     3.1268966644     0.9016962957
C     1.0629482262     3.749809652     -0.1477384043
C     -1.4229250801     2.9848475654     2.0936848568
C     -2.2369818857     3.1941492151     0.9060067002
C     -1.4120221181     3.7120978181     -0.1632376807
C     -0.1711670558     3.5138749037     1.8288596454
C     -0.1779382343     4.0541406768     0.4379084463


