60

 C     -0.4353180308     4.7026371781     1.2748991254
C     -0.1953080191     4.8941513404     -0.0870203129
C     -1.2119574958     4.2697204933     -0.9062923712
C     -1.5608499164     3.8199025331     1.3491558208
C     -2.0661890621     3.5464953341     -0.0124534074
C     -1.1639083718     2.6890189938     2.0969035114
C     0.7340873177     3.9848324373     1.8090580234
C     0.292843303     2.8013549195     2.4092075549
C     1.1031405291     4.3744498759     -0.4694083206
C     1.726788739     3.8684031701     0.7322353622
C     -0.517593515     3.5385775478     -1.9184737045
C     0.943225264     3.5368377746     -1.6110735779
C     -1.0696339067     2.3641745099     -2.3676547985
C     -2.492454302     2.2290422163     -0.3463437098
C     -2.177454869     1.7536332861     -1.6562542589
C     -1.6938168782     1.409938248     1.8570481125
C     -2.5102944306     1.180416654     0.669193507
C     -1.0044606582     0.2796722558     2.4722244243
C     1.097247785     1.6004072912     2.4024459262
C     0.4542508286     0.3156091277     2.6210240901
C     2.4315195508     2.6856812275     0.6233018795
C     2.2763693401     1.6413019037     1.6201274783
C     1.6784648499     2.30993959     -1.7372299234
C     2.5541113161     1.9875493212     -0.6504796971
C     -0.2463647973     1.2689192382     -2.8562114351
C     1.1190361191     1.1692397466     -2.4996166053
C     -2.2023085411     0.3617551968     -1.9952959351
C     -1.0726754099     0.1021276335     -2.870195381
C     -2.7707769729     -0.1792427638     0.2949340464
C     -2.6186416001     -0.6363632609     -1.0987453615
C     -1.6289114299     -0.9471818023     2.3700757832
C     -2.614340001     -1.1578878754     1.3097289606
C     -0.9489126988     -2.2024391916     2.5843943642
C     1.1672965019     -0.9221033248     2.4129412735
C     0.4815005434     -2.2218945589     2.5126105783
C     2.7406882244     0.4216209482     1.0569939996
C     2.8773826458     0.6279637369     -0.3736716592
C     2.3504500005     -0.8235568045     1.5563143708
C     1.6766393836     -0.1845519331     -2.3637237893
C     2.6250536377     -0.4371790062     -1.2795842296
C     -0.5184484545     -1.1529583944     -2.9231820248
C     0.9014449324     -1.3049502965     -2.7666396927
C     -2.2409221475     -2.0342729338     -1.3746367502
C     -1.1805811936     -2.2770822582     -2.308129155
C     -2.6248374527     -2.5267074397     1.0220758039
C     -1.7352887119     -3.2127467601     1.9266957309
C     -2.4050255242     -3.0116384257     -0.3290190593
C     -1.1108643444     -4.2358949409     1.1955850378
C     -1.5395011838     -4.1260326079     -0.2345006525
C     1.0851210037     -3.3910981164     1.8861554763
C     0.2626857473     -4.3889511211     1.2454917091
C     2.6950971446     -1.9276973167     0.7144211842
C     2.7595207025     -1.7360807253     -0.7440972612
C     2.1792708921     -3.1845799022     0.9833480486
C     1.1175167075     -2.6601408526     -2.2751499118
C     -0.1820788467     -3.3041241846     -2.0874180018
C     -0.3811614495     -4.2502399968     -1.0539036024
C     0.7332295028     -4.5407522934     -0.1667096039
C     2.1394396786     -2.8924553333     -1.3456284799
C     1.9174582238     -3.8645694084     -0.2998484094


