60

 C     0.7482675046     -4.1350811813     -0.6449950864
C     1.2139276917     -3.9426102862     0.647720518
C     2.4092691012     -3.1161144213     0.6207913385
C     1.5840975206     -3.3159281113     -1.5204373482
C     2.5885020404     -2.6442609292     -0.7122406384
C     0.734078272     -2.5542729424     -2.3146796624
C     -0.6346701328     -3.8896811586     -0.948160202
C     -0.6729071423     -2.9454034064     -2.0325066176
C     -1.5456857643     -3.7339401942     0.1258972764
C     0.3400134657     -3.4493730902     1.7013598979
C     -1.0195829535     -3.4300951304     1.4732021144
C     2.2909125241     -2.1773164103     1.6762045079
C     1.0085070834     -2.3052575786     2.33737439
C     2.8388071154     -0.9097620013     1.4922032198
C     2.9250805169     -1.2782340439     -0.9636902236
C     3.2832165962     -0.4955189162     0.1777404338
C     1.0773840378     -1.1988015461     -2.6763913267
C     2.2611850672     -0.5689599907     -2.0708663304
C     0.0048860503     -0.3714430215     -3.0685417692
C     -1.7054638175     -1.9739262337     -2.1288820347
C     -1.3802509512     -0.7137200209     -2.7175406313
C     -2.6474755969     -2.8731217818     -0.0535391451
C     -2.7457192971     -1.9689238754     -1.1367995318
C     -1.805192561     -2.3248372711     2.0348255655
C     -2.9000757992     -2.1219857785     1.174692481
C     0.2995088565     -1.1493648584     2.7609095914
C     -1.1651317803     -1.18647994     2.6605865637
C     2.284865825     0.2203374916     2.1643060382
C     0.9914685556     0.1582585043     2.7515665745
C     3.2637530919     0.9367027101     0.1585810673
C     2.7354475536     1.3984661005     1.4375556584
C     2.3449041194     0.8464517343     -2.1026290836
C     2.9079084933     1.6167208096     -0.9978096394
C     0.118972782     1.0511981573     -3.0819701997
C     1.2978477689     1.6612303137     -2.6599524838
C     -2.0382022101     0.4819845472     -2.3489016117
C     -1.1642850927     1.6014757867     -2.6759579048
C     -3.2558635424     -0.6937790726     -0.6186858267
C     -3.3402329298     -0.8283325187     0.8298646683
C     -2.9045805419     0.5415301029     -1.1911833275
C     -1.8552948924     0.0503751332     2.5657245236
C     -2.935814313     0.2325697467     1.6287974599
C     0.2275104976     1.4122465568     2.7871342504
C     -1.1837008707     1.3297024285     2.6916912788
C     2.0824046372     2.5943506965     1.5367235786
C     0.8357543838     2.6474429926     2.3073358254
C     2.2423270701     2.9043191777     -0.9083675109
C     1.238155149     2.9419083741     -1.9566926501
C     1.9439799172     3.4517045071     0.3575417628
C     -1.2296848183     2.788321012     -1.9933500559
C     -0.0039062235     3.554879686     -1.7243280068
C     -2.8315634355     1.7457260538     -0.3352438581
C     -2.8345133403     1.5563295152     1.0744423784
C     -1.92796398     2.3053274869     1.9193014328
C     -2.1193840747     2.9081428283     -0.8221513658
C     0.0570901254     3.6766174134     1.7542762542
C     0.7264837423     4.1718489589     0.5335557346
C     -0.2196592292     4.2348919147     -0.4853518783
C     -1.3216891461     3.4654584909     1.448655665
C     -1.5180229195     3.8100063796     0.0612836019


