60

 C     -3.0791625398     -3.0797733532     0.2741157478
C     -1.8162376118     -3.6578346655     0.5167716888
C     -1.1781890437     -3.0540756573     1.6743674644
C     -3.2101947065     -2.0129735182     1.1794937294
C     -2.0112145552     -1.9461245813     2.0393606059
C     -3.568592878     -0.8279462929     0.479959093
C     -2.9794242616     -2.4446430816     -1.0532527586
C     -3.3829476281     -1.0906872196     -0.9461094481
C     -1.0683072909     -3.6929252553     -0.7136451555
C     -1.722919149     -2.7443279856     -1.6334908021
C     0.2843501901     -3.7300438177     -0.6214410502
C     0.2329703551     -2.9734758921     1.7349892821
C     0.9410672614     -3.6677360399     0.6831851378
C     0.8337114832     -1.7534090388     2.3077125176
C     -1.4615042197     -0.6908986545     2.3950723189
C     -0.0030243928     -0.5889408644     2.5719194604
C     -3.2670652943     0.4286018314     1.0209887421
C     -2.2597637528     0.5074342175     2.0905501332
C     -3.3649520154     1.5024191925     0.0813655707
C     -2.7834177081     -0.089139624     -1.7553424493
C     -3.0069318497     1.2366389305     -1.308930839
C     -0.9289691647     -1.7225955182     -2.2895941937
C     -1.541617119     -0.4131134     -2.4608486693
C     1.1174466367     -2.9737008915     -1.5704567275
C     0.5310276665     -1.8456489458     -2.2733189118
C     2.261127731     -3.3034127461     0.3998319662
C     2.385469441     -2.888265913     -1.0100618515
C     2.2382055654     -1.5309872413     2.0675676979
C     2.9455407934     -2.371294074     1.162467829
C     2.7950157828     -0.1926062973     1.9378659732
C     0.6145581199     0.7498846249     2.5939816206
C     2.02480642     0.9451429052     2.203769843
C     -1.6600633359     1.7614427867     2.2898236693
C     -0.2291524312     1.8741944857     2.504219057
C     -2.892802765     2.7890586957     0.4075327247
C     -2.0772279114     2.9264353115     1.5518053901
C     -2.1846411263     2.3512892162     -1.731992768
C     -2.1724089816     3.3564650016     -0.713435787
C     -0.6895706485     0.6773375284     -2.7743058814
C     -1.0082296312     2.0453306326     -2.4233461812
C     1.3872432193     -0.6733407674     -2.4690690607
C     0.7363103824     0.5469991919     -2.7752026082
C     3.1914447858     -1.7002584497     -1.06026761
C     3.7044121673     -1.4944521208     0.2530791349
C     3.7216511807     -0.2117010477     0.7987451447
C     2.7307521211     -0.5845316699     -1.8447222458
C     3.7344506014     0.8700565636     -0.0988610568
C     3.2177110325     0.6904420425     -1.4430386797
C     2.4061374838     2.1739449279     1.5228129891
C     3.2433837311     2.1008949598     0.3773621983
C     0.1941376605     3.126131794     1.8443861081
C     -0.9305326247     3.7166613322     1.2136150916
C     -0.9294038832     3.8527879723     -0.2276682217
C     1.4349883773     3.1854554623     1.2403144773
C     0.2252746692     2.7481195233     -2.1138585559
C     1.3057679814     1.8550631678     -2.4533502922
C     2.5195806961     1.9328317434     -1.7880587512
C     2.6345468258     2.8574747177     -0.7007424868
C     0.2993560482     3.6052318579     -0.9645556516
C     1.5160217098     3.5370941076     -0.2000635123


