60

 C     0.1916135344     -0.6455559782     -4.6342747393
C     -0.1916135344     0.6455559782     -4.6342747393
C     0.8275881421     1.4575125986     -3.9381910041
C     1.4650748631     -0.7563561932     -3.8780980439
C     1.8130802399     0.5664268443     -3.3419746937
C     1.3115089324     -1.783447961     -2.9853222222
C     -0.8275881421     -1.4575125986     -3.9381910041
C     -0.1286790796     -2.2626761767     -3.0638077319
C     -1.4650748631     0.7563561932     -3.8780980439
C     -1.8130802399     -0.5664268443     -3.3419746937
C     0.1286790796     2.2626761767     -3.0638077319
C     -1.3115089324     1.783447961     -2.9853222222
C     0.7307981549     2.7017958174     -1.8758221641
C     2.1902359837     0.7186836077     -1.9664207622
C     1.8125950446     1.9515664094     -1.2870652093
C     1.922039149     -1.7338422747     -1.6810399483
C     2.3542390827     -0.474736433     -1.111524729
C     1.5340951283     -2.7726262204     -0.8335047005
C     -0.7307981549     -2.7017958174     -1.8758221641
C     0.1806353333     -3.3846194681     -1.0233018453
C     -2.1902359837     -0.7186836077     -1.9664207622
C     -1.8125950446     -1.9515664094     -1.2870652093
C     -1.922039149     1.7338422747     -1.6810399483
C     -2.3542390827     0.474736433     -1.111524729
C     -0.1806353333     3.3846194681     -1.0233018453
C     -1.5340951283     2.7726262204     -0.8335047005
C     0.2633254263     3.8456775275     0.1735561988
C     2.0888837819     2.141390024     0.1322624145
C     1.4677934354     3.2797505949     0.7627026096
C     2.4434007308     -0.3683914824     0.3429758945
C     2.4355506597     0.9681329944     0.9535941117
C     1.8103703171     -2.7718702325     0.5466838149
C     2.1833667306     -1.5513667567     1.1878952866
C     -0.2633254263     -3.8456775275     0.1735561988
C     0.8192217494     -3.6518570861     1.1595351891
C     -2.0888837819     -2.141390024     0.1322624145
C     -1.4677934354     -3.2797505949     0.7627026096
C     -2.4434007308     0.3683914824     0.3429758945
C     -2.4355506597     -0.9681329944     0.9535941117
C     -1.8103703171     2.7718702325     0.5466838149
C     -0.8192217494     3.6518570861     1.1595351891
C     -2.1833667306     1.5513667567     1.1878952866
C     1.2168695501     3.2753776794     2.1661284276
C     -0.2710512319     3.4112177699     2.374337149
C     2.2351865887     1.0457105791     2.3675615987
C     1.5985437972     2.2072698633     2.9249030402
C     1.7261224048     -1.3928942096     2.5913246615
C     1.7196517196     -0.0879208622     3.1053691062
C     0.2710512319     -3.4112177699     2.374337149
C     -1.2168695501     -3.2753776794     2.1661284276
C     0.7264758526     -2.2996610232     3.1562768011
C     -2.2351865887     -1.0457105791     2.3675615987
C     -1.5985437972     -2.2072698633     2.9249030402
C     -0.4544659904     -1.7469175422     3.7438795117
C     -1.7261224048     1.3928942096     2.5913246615
C     -0.7264758526     2.2996610232     3.1562768011
C     0.4544659904     1.7469175422     3.7438795117
C     0.5915558829     0.3861634068     3.931361778
C     -1.7196517196     0.0879208622     3.1053691062
C     -0.5915558829     -0.3861634068     3.931361778


