60

 C     -0.1629696668     4.6223068448     -0.4888889859
C     0.3647309717     3.9696373481     -1.6655845387
C     -0.6836913722     3.2971103877     -2.3157075042
C     -1.4989508577     4.0848299969     -0.2872145397
C     -1.8775505194     3.3786158896     -1.4356772092
C     -1.5670860148     3.372464664     0.9754525625
C     0.6037684892     4.1358692504     0.5878218453
C     -0.2554317524     3.5230177403     1.5888350408
C     1.5251363728     3.1793785109     -1.2989533605
C     1.7399713619     3.3670485868     0.1271499913
C     1.7522734782     1.8913327289     -1.8545913632
C     -0.5574801343     1.9645027258     -2.7411718218
C     0.6871683107     1.2660471335     -2.6362160208
C     -2.4613544715     2.0992495434     -1.3596825048
C     -1.7424242901     1.2481383536     -2.2905056085
C     -2.2569462485     2.1272274327     1.0955007714
C     -2.8047015987     1.5002340511     -0.1076515118
C     -1.8204241918     1.2186844755     2.1620235791
C     0.2842777077     2.5245820838     2.3816332102
C     -0.5401236276     1.3932310898     2.772448904
C     2.2740358944     2.3257475674     0.9256787351
C     1.6164007415     2.0382327633     2.1662497565
C     2.7037785026     1.0226753617     -1.1618152537
C     2.9788663223     1.2348079698     0.2553092094
C     2.8746280008     -0.284694865     -1.7032426807
C     0.6303975777     -0.1762554223     -2.7661195147
C     1.8085090381     -0.8933676957     -2.4672788166
C     -1.8221773902     -0.1511565604     -2.2421933777
C     -0.6556475945     -0.8846519942     -2.6961202383
C     -3.1185593717     0.0839342623     -0.1282464314
C     -2.7856330472     -0.7324635168     -1.3055065682
C     -2.3238343305     -0.0905204452     2.1882909544
C     -3.1575652337     -0.5902540287     1.1253801274
C     -1.5330861975     -1.2175748575     2.7037166337
C     0.3066739821     0.2761619517     3.0663766905
C     1.636817315     0.6903166813     2.6892297658
C     -0.1291334803     -1.0738064217     2.906625903
C     3.328066752     0.0899119436     1.0461555856
C     2.5165933212     -0.2388974169     2.2018611979
C     3.4646865394     -1.3259170471     -0.9168949021
C     3.6383207758     -1.1476548819     0.4391348791
C     1.7672602981     -2.3228290912     -2.1190918372
C     2.7207869019     -2.5703546451     -1.1210681439
C     -0.6612725853     -2.2942287199     -2.4733990856
C     0.5517463063     -2.9865707184     -2.0418577334
C     -2.7949612483     -2.1545557499     -1.1968322246
C     -1.7455177652     -2.8836866399     -1.8131072495
C     -3.1034751395     -2.017588032     1.1982232059
C     -2.02466598     -2.3958181646     2.1424308784
C     -3.0043122255     -2.797157727     0.0847123436
C     0.2342907035     -3.7894656676     -0.8819615228
C     -1.1891963892     -3.8643487342     -0.8394682637
C     -1.1953419073     -3.3795725283     1.5505452724
C     -1.886521718     -3.7626769747     0.3272450413
C     0.7696699935     -2.0916644495     2.3630896109
C     2.1324728198     -1.6675239207     2.1266038613
C     2.9050002203     -2.2433332231     1.1258828984
C     2.3184257065     -3.1062707695     0.147997306
C     0.2376167629     -3.1907728166     1.5493984267
C     0.9876650822     -3.5996636129     0.3350451254


