60

 C     3.634619162     -0.2300770826     2.1796039753
C     3.7074741291     -1.2838316325     1.2622997353
C     2.611192453     -2.2173248092     1.5742490742
C     2.5020581559     -0.4862898819     3.0893150165
C     1.8537731258     -1.6756655968     2.6605369131
C     1.7379789172     0.706604798     3.2017300498
C     3.5436218863     1.1172298022     1.7440612335
C     2.3801436941     1.7072005345     2.4122982196
C     3.4533315195     1.411242208     0.3729527597
C     3.6607408768     -1.0157945709     -0.1269156891
C     3.6275094989     0.354020354     -0.5922148754
C     1.9691878485     -2.5607436887     0.3807079206
C     2.6983485762     -1.9488515159     -0.7193900659
C     0.5396042213     -2.7163530615     0.3157775195
C     0.4304352978     -1.7555142934     2.6443846933
C     -0.2019246213     -2.4772671995     1.5444657687
C     0.3153594397     0.6561848894     3.2511992656
C     -0.3153594397     -0.6561848894     3.2511992656
C     -0.4304352978     1.7555142934     2.6443846933
C     1.626821856     2.4208177768     1.4668452105
C     2.2949791438     2.3316122769     0.1964191805
C     0.2019246213     2.4772671995     1.5444657687
C     1.5749176966     2.406857996     -0.9992568938
C     3.0364980572     0.5557883015     -1.8512794089
C     2.1808169098     1.7334418122     -2.1254557607
C     2.0811155579     -1.7145721004     -1.9440964479
C     2.5359190631     -0.5251209602     -2.6423830055
C     -0.1077491637     -2.595404122     -0.9800637049
C     0.6841134794     -2.1905447339     -2.1522079105
C     -1.5749176966     -2.406857996     -0.9992568938
C     -1.626821856     -2.4208177768     1.4668452105
C     -2.2949791438     -2.3316122769     0.1964191805
C     -1.7379789172     -0.706604798     3.2017300498
C     -2.3801436941     -1.7072005345     2.4122982196
C     -1.8537731258     1.6756655968     2.6605369131
C     -2.5020581559     0.4862898819     3.0893150165
C     -2.611192453     2.2173248092     1.5742490742
C     -0.5396042213     2.7163530615     0.3157775195
C     0.1077491637     2.595404122     -0.9800637049
C     -1.9691878485     2.5607436887     0.3807079206
C     -0.6841134794     2.1905447339     -2.1522079105
C     1.4242678151     1.4661469672     -3.2430100897
C     1.6931729316     0.05543952     -3.6221899376
C     0.0108994004     1.681769209     -3.2940537717
C     -0.0108994004     -1.681769209     -3.2940537717
C     0.5226537779     -0.5287396772     -4.0043292743
C     -0.5226537779     0.5287396772     -4.0043292743
C     -2.1808169098     -1.7334418122     -2.1254557607
C     -1.4242678151     -1.4661469672     -3.2430100897
C     -1.6931729316     -0.05543952     -3.6221899376
C     -2.6983485762     1.9488515159     -0.7193900659
C     -2.0811155579     1.7145721004     -1.9440964479
C     -3.0364980572     -0.5557883015     -1.8512794089
C     -2.5359190631     0.5251209602     -2.6423830055
C     -3.4533315195     -1.411242208     0.3729527597
C     -3.5436218863     -1.1172298022     1.7440612335
C     -3.634619162     0.2300770826     2.1796039753
C     -3.7074741291     1.2838316325     1.2622997353
C     -3.6275094989     -0.354020354     -0.5922148754
C     -3.6607408768     1.0157945709     -0.1269156891


