60

 C     2.4509752222     -3.3408466581     -0.6354971233
C     1.2825305685     -3.6120888184     -1.2945289385
C     0.2693894215     -4.08291461     -0.324105589
C     2.122608864     -3.4854696698     0.8306801068
C     0.7287632052     -3.7649169892     0.9867461318
C     2.6891121855     -2.4251946791     1.4676383545
C     3.0934545605     -2.0836238866     -0.8150689914
C     3.5041560352     -1.6525703313     0.5117696787
C     2.5306286011     -1.108675018     -1.7079928975
C     0.6346540299     -2.6598106379     -2.1474259794
C     1.2268591153     -1.384336519     -2.3347495241
C     -0.9818156166     -3.6918987123     -0.7792076548
C     -0.7878624109     -2.7648401123     -1.8934549531
C     -1.9496889107     -3.3820940797     0.2030060668
C     -0.0962565927     -2.8918040787     1.8303691063
C     -1.468108134     -2.8710919561     1.5167983875
C     1.9106610107     -1.4883992991     2.2637379414
C     0.4793993677     -1.6636955175     2.4146765774
C     3.397549214     -0.3335883567     0.8657238567
C     2.4624693969     -0.2219783651     2.0092082634
C     2.9025073511     0.2814327127     -1.470729934
C     3.3730545515     0.6791948116     -0.1401539088
C     2.2431220092     1.2755334702     -2.2343018001
C     0.3121043292     -0.2628570838     -2.6225740746
C     0.8794593899     1.0101725396     -2.6851500241
C     -1.7046029102     -1.6904516353     -2.0829422507
C     -1.1544149715     -0.374652194     -2.4245868779
C     -3.0488114737     -2.6531755493     -0.1864829384
C     -2.9549151311     -1.7967520912     -1.3650644635
C     -2.3235255966     -1.7840904684     1.8885601
C     -3.4194952907     -1.7834169071     0.9311021509
C     -0.3378587746     -0.472053768     2.5933035951
C     -1.786358908     -0.544273269     2.3506827158
C     1.7401416771     0.976637717     2.2202760142
C     0.320473962     0.8610357314     2.6049349608
C     3.0947756227     1.9716511266     0.3475373336
C     2.2487736663     2.1219266973     1.5654180479
C     2.2823017432     2.6324442372     -1.827241703
C     2.7203325833     2.9911401237     -0.5461065535
C     0.0948640795     2.2301760183     -2.4732362601
C     0.9572206258     3.2300156923     -2.0101941712
C     -1.9201254155     0.8207547207     -2.1118619405
C     -1.2672612     2.1336144869     -2.0159747013
C     -3.6404882184     -0.6068160764     -1.042040612
C     -3.9070160617     -0.6127110574     0.4246460163
C     -3.1350664806     0.6500649587     -1.3573227912
C     -2.5223009625     0.685394387     2.0056678131
C     -3.5125527135     0.6322328678     0.9591207053
C     -3.3549312853     1.5158180625     -0.182564039
C     -0.4525708906     2.0334524885     2.4881872408
C     -1.8663682349     1.9383999304     2.1400110122
C     1.4117111664     3.2735010328     1.3738869249
C     1.6756796658     3.817123259     0.0825363511
C     0.6151494383     4.0057223764     -0.8452414562
C     0.0879692236     3.2442565975     1.8712495259
C     -1.6928796946     3.0971345521     -1.0515044763
C     -2.6724175192     2.6888976944     -0.0460296203
C     -2.1363913011     2.9953610732     1.2392437349
C     -0.7151846914     3.9324638829     -0.369422037
C     -0.9335822922     3.7655350459     1.0360389703


