60

 C     -0.5383241461     -4.0619620612     1.6777956728
C     0.351371922     -4.2055629342     0.5810002778
C     1.5511574198     -3.4722508007     0.8259067481
C     0.0013928402     -3.0418051332     2.5180943619
C     1.3032495332     -2.6925010946     2.0342555349
C     -0.9286760512     -1.9526046187     2.54650784
C     -1.7566497112     -3.5409381982     1.1167352872
C     -2.0906077856     -2.2979719627     1.7363892126
C     -0.3628578202     -4.0025111436     -0.6811523217
C     -1.7352980077     -3.6253781499     -0.3217421733
C     0.2809209555     -3.3164871602     -1.7043684929
C     2.2667774154     -2.8752861623     -0.2501833235
C     1.641657674     -2.836680818     -1.5455543358
C     3.1254691375     -1.7862104451     0.1010047283
C     1.8028359294     -1.3579288759     2.1712129292
C     2.8764434408     -1.0150579484     1.3342372665
C     -0.5145324351     -0.5881224112     2.666098533
C     0.8979297652     -0.2754890748     2.623636092
C     -1.5099623014     0.4251425779     2.347841629
C     -2.799052268     -1.2969760307     1.0197700716
C     -2.6510652139     0.0932634608     1.4631378765
C     -2.39352197     -2.6298583387     -1.0340844763
C     -3.0874309295     -1.5671925603     -0.3533535338
C     -0.4434330162     -2.3088939872     -2.491224178
C     -1.7616979256     -2.0121555408     -2.2044788391
C     1.7607737238     -1.6393560342     -2.3406660051
C     0.470538639     -1.2396382845     -2.8370749297
C     3.4829664362     -0.8356591697     -0.8598339333
C     2.7075809069     -0.6544064454     -2.0409036387
C     3.2342414811     0.3752759666     1.1083160861
C     3.6476947184     0.4650190975     -0.2386619395
C     1.3091928968     1.1069851332     2.4936901585
C     2.5020848396     1.444500873     1.6997564139
C     -1.1010517896     1.7636972539     2.4667695157
C     0.2902955006     2.0992499932     2.6207255127
C     -1.7629480954     2.8452927857     1.7146494937
C     -3.1781095149     1.112501344     0.6436450747
C     -2.7219715733     2.4891386292     0.737998835
C     -3.1579463374     -0.4465775022     -1.2594771832
C     -2.2172057113     -0.6539437431     -2.3315521026
C     -3.3898758903     0.825153171     -0.7747516002
C     0.0784307119     0.1303995305     -2.8811738484
C     -1.3405262751     0.4169220804     -2.7203114629
C     2.3681144422     0.7511965028     -2.1700530609
C     3.1008830903     1.4470388013     -1.0953740569
C     1.0698104065     1.1721248039     -2.5275621592
C     2.4773524279     2.6589445226     0.9313528454
C     2.5951173697     2.5794008792     -0.5038165466
C     0.4557810713     3.4174314756     2.0467600604
C     -0.8129537725     3.8283655616     1.416529508
C     1.4810454717     3.651458968     1.1683627703
C     0.6077372718     2.5107888305     -2.049534084
C     1.4363257802     3.2585347662     -1.1017728527
C     -0.5336553596     4.1848404474     0.0456546409
C     0.8793149923     4.0832982844     -0.1219242612
C     -2.5481776134     2.9941113333     -0.5771585516
C     -2.854051618     1.9199105151     -1.5027560098
C     -1.7457573771     1.738234006     -2.34897302
C     -1.3499746159     3.6457702486     -0.9711499179
C     -0.7671728856     2.7954149861     -2.0172115376


