60

 C     -1.7317756831     -4.5492083894     -0.0887750446
C     -0.8475351635     -4.7072707749     -1.1243020857
C     0.5231741397     -4.7082247224     -0.6168133873
C     -0.9487856206     -4.3374605679     1.1470338501
C     0.4632084175     -4.5361295946     0.8218507828
C     -1.3493820739     -3.1098662468     1.6803943393
C     -2.5386058802     -3.3658160263     -0.3491847432
C     -2.4013566214     -2.5487801822     0.7731507472
C     -1.0072474098     -3.5971505776     -2.0713498372
C     -2.095223     -2.7748266209     -1.6132603351
C     1.2439636961     -3.7639566834     -1.3940213624
C     0.256533515     -2.9938786516     -2.224260982
C     2.2939633515     -3.057412886     -0.8014390758
C     1.3942134083     -3.6726556523     1.415209498
C     2.4587742072     -3.1687504576     0.6186684726
C     -0.4105864955     -2.1598289426     2.2805241481
C     0.9535132275     -2.5260148365     2.244646911
C     -0.7700962004     -0.746585529     2.3851140416
C     -2.527280987     -1.1566995904     0.6547147593
C     -2.0294065844     -0.3155036927     1.7245408921
C     -1.9963807888     -1.3769818332     -1.721250841
C     -2.5726024971     -0.5772312773     -0.6585473555
C     0.3838200921     -1.5702540808     -2.360526189
C     -0.8101043421     -0.7598702738     -2.2967050268
C     2.5412092041     -1.6707941434     -1.1582648088
C     1.6321204733     -0.9293021625     -1.9455076478
C     2.8469767134     -1.8730130045     1.1093642036
C     1.9291784983     -1.4644341112     2.1336564275
C     3.0473756814     -0.9999079551     0.0322994442
C     0.2118567291     0.2783113713     2.5550987151
C     1.5972318756     -0.102454588     2.2593313129
C     -0.1559853575     1.7140616862     2.503758411
C     -2.3516875724     1.0129826131     1.634326387
C     -1.524269397     2.0659794945     2.2169364639
C     -2.6217275639     0.8389388994     -0.7905444522
C     -2.8968844247     1.5644181589     0.394595802
C     -0.7149933906     0.6890987736     -2.3225389262
C     -1.8262348147     1.49115276     -1.8291695655
C     1.7095714994     0.5277965817     -1.9031879052
C     0.5951201839     1.3116223074     -2.3830869118
C     2.8959016643     0.3804370159     0.2212928249
C     2.3693171056     0.8480889228     1.4853864737
C     2.5896258882     1.1711765155     -0.9457043474
C     0.8105588109     2.6988788278     2.1780581069
C     2.0741210379     2.2313820923     1.5914918627
C     0.4767188326     3.973853554     1.5422650626
C     -1.8527465451     3.287787507     1.6078782474
C     -2.7016174747     2.9620307166     0.4417138903
C     -0.876167654     4.2471426296     1.1934019747
C     -1.7200603918     2.9189076732     -1.7915212376
C     -2.2455913077     3.6635256599     -0.6546714653
C     -1.196529229     4.5993419047     -0.1883158112
C     0.6826239697     2.7535292486     -2.3162699709
C     -0.4931406816     3.5356340822     -2.1420212866
C     -0.1974611568     4.600008875     -1.1552450839
C     2.551460287     2.57520379     -0.7651277574
C     2.4557724488     3.1114211622     0.5828628224
C     1.5047467453     4.2239166612     0.5553327128
C     1.7509447536     3.3780688059     -1.5921742001
C     1.1678698517     4.4655655644     -0.7811118441


