60

 C     1.3668486972     4.5155883332     -0.1754721659
C     0.971137904     3.9839399741     -1.4784983883
C     -0.4187711355     3.973154295     -1.5719138057
C     0.1706376336     4.4513643098     0.6360732747
C     -0.9410594998     4.303456161     -0.2176773647
C     0.3480014485     3.4846392806     1.7100460151
C     2.2597093937     3.581039037     0.3647939238
C     1.7291853619     3.0608932641     1.6169300223
C     1.6651810121     2.7427806007     -1.7279236968
C     2.5883688251     2.5766991466     -0.6197138602
C     0.9851599278     1.5876858398     -2.2450250747
C     -1.1277971844     2.8367919726     -2.0316397271
C     -0.465451808     1.6216084598     -2.4195095625
C     -1.9719650212     3.4150299631     0.0916108392
C     -2.2832357501     2.7073521525     -1.1586616683
C     -0.6681334265     2.5201572821     2.0281944527
C     -1.92935149     2.611581379     1.2976566523
C     -0.2615043819     1.1842755589     2.5347224392
C     2.0927810087     1.784672818     1.9995250984
C     1.1192764952     0.8781658575     2.5811501535
C     2.9888155015     1.2941730486     -0.2113158131
C     2.9823817326     0.9955827581     1.1925726573
C     1.6248749417     0.2981547989     -2.0692034457
C     2.7504158378     0.2051469819     -1.1398324609
C     0.9181919513     -0.9296773271     -2.4298948647
C     -1.2279413012     0.3532986496     -2.3681300803
C     -0.5378167554     -0.9402961823     -2.4248301048
C     -3.0130652813     1.5615009384     -1.1485789785
C     -2.5478820288     0.3822163542     -1.8597452887
C     -2.7835905845     1.4790881351     1.3125169618
C     -3.4951394166     1.1045610951     0.1193552686
C     -1.1614349103     0.0210192039     2.5029156352
C     -2.4631265281     0.2473287899     1.9937340489
C     -0.630226259     -1.3719628466     2.5077212852
C     1.6162703842     -0.4695014502     2.4255539839
C     2.8031616036     -0.3648527217     1.5957167691
C     0.8028203579     -1.6241727472     2.3915025854
C     3.1604161767     -1.0745341578     -0.7085661995
C     3.1087238188     -1.3909599266     0.7381017595
C     1.6130978137     -2.1760997258     -2.2465120268
C     2.7731977729     -2.214011486     -1.3934483547
C     0.8983019384     -3.3907646873     -2.0544357853
C     -1.2415783248     -2.165109     -2.0180887494
C     -0.4940454804     -3.3904750187     -1.8598592013
C     -3.0871626219     -0.7681352935     -1.1537539192
C     -3.6696766568     -0.2955147798     0.0645381832
C     -3.1781784949     -0.8331571105     1.2962826678
C     -2.4475655422     -2.0232750229     -1.2043291252
C     -1.4826121045     -2.4253439577     2.0543735071
C     -2.6708020574     -2.0909286091     1.2774079851
C     -2.5564827113     -2.8149285677     0.0059741194
C     -0.7647828196     -4.2701852424     -0.71711724
C     -0.9616291664     -3.6158728769     1.5089328471
C     -1.6844736637     -3.8828716727     0.230938455
C     1.3418447734     -2.8422468187     1.7202044754
C     2.5104995134     -2.685013664     0.892797052
C     2.5367293615     -3.2764278741     -0.4228936443
C     1.519969324     -4.1005829471     -0.9000858906
C     0.4113244035     -3.8673119318     1.3090501766
C     0.5091576916     -4.468732893     -0.0242361079


