60

 C     0.7393085916     -4.0207043758     -0.8792887767
C     1.9127597296     -3.6774667727     -0.2012262092
C     2.5969031615     -2.6817790118     -0.9925562262
C     0.6670900385     -3.2072057064     -2.0914470071
C     1.7801364232     -2.3139822739     -2.1192494133
C     -0.633731951     -2.6992456216     -2.1846656118
C     -0.5300435953     -3.97891219     -0.2303739251
C     -1.4504127653     -3.2369146629     -1.0817157004
C     -0.5586807169     -3.7346826806     1.1670874963
C     1.8410110418     -3.1581675227     1.1435460621
C     0.6490536424     -3.213862696     1.8373226371
C     3.1021104173     -1.6670912195     -0.1500124559
C     2.6049355079     -1.9044282036     1.1842151336
C     3.2823885399     -0.3522344111     -0.6480228942
C     1.6163059563     -0.924135983     -2.4456965296
C     2.5754436301     0.0273661321     -1.8759611983
C     -0.8402647402     -1.3696211213     -2.6730014657
C     0.2904978773     -0.4570283543     -2.8332290554
C     -2.1319772383     -0.8274132526     -2.3913438073
C     -2.4883699482     -2.437053528     -0.540768286
C     -2.9105322371     -1.2991850476     -1.2908570815
C     -1.6613083648     -3.0190577544     1.6885812766
C     -2.6088400591     -2.3596336323     0.9007514899
C     0.2351702955     -2.0559343889     2.6685984816
C     -1.1600782793     -2.0432302478     2.663672602
C     2.2382197765     -0.7963993631     2.0010219397
C     0.9423394532     -0.8069704678     2.6942992653
C     3.4610748356     0.6223733583     0.371664246
C     2.8169404991     0.4397018965     1.6423953406
C     3.3538753533     2.0064003817     0.0605238167
C     2.3366539902     1.4148300845     -2.0733107904
C     2.8545512476     2.3939175953     -1.1696824496
C     0.0150111761     0.9900101621     -2.8218816759
C     1.0313598273     1.8791632159     -2.4629268278
C     -2.3938946013     0.5713367061     -2.5438511189
C     -1.3378119215     1.4762154966     -2.6392053619
C     -3.4796084222     -0.1070829412     -0.6573314364
C     -3.2915235184     0.9955409513     -1.5048022712
C     -2.8573157789     -1.0408139551     1.5199074097
C     -1.9066188112     -0.8587726031     2.5960992606
C     -3.3310648749     0.0699583357     0.7821177637
C     0.1963751386     0.441526163     2.8628574583
C     -1.2651762792     0.3890301104     2.8105482724
C     2.2007576866     1.7088818694     2.0197868135
C     2.638356773     2.7094890292     1.1185186454
C     0.8571191579     1.7195758919     2.5354302274
C     1.8445083127     3.4368469751     -0.939372077
C     0.7352386571     3.1412755073     -1.712846497
C     1.7085206624     3.6109684164     0.5028092021
C     -1.6376233619     2.6310112311     -1.7707511548
C     -2.8162585945     2.2590307981     -1.0069399237
C     -0.598990544     3.4071321889     -1.2149170349
C     -2.994680363     1.3599287274     1.2787796655
C     -2.0015876329     1.5128653594     2.3261213932
C     -2.8401007911     2.5230555854     0.3676276117
C     0.0651876795     2.8627398197     2.1702923564
C     0.4419186048     3.7324772964     1.0474685453
C     -0.7200913132     3.8199770292     0.1686935423
C     -1.340701859     2.7350305352     2.1100706126
C     -1.8438355217     3.3613530397     0.9064254955


