60

 C     2.1056046809     -4.1594235463     0.1930173062
C     0.9470058483     -4.5777783297     0.7699148406
C     -0.1523588816     -4.4598512565     -0.2004901258
C     1.7724741522     -3.6634242084     -1.169815687
C     0.3491809319     -3.8691961316     -1.4138819874
C     2.2969224609     -2.3841033977     -1.2851150851
C     2.6324880628     -3.0384634735     0.9658797296
C     2.8791175638     -2.0198691778     0.0480874135
C     0.637299676     -3.7074883086     1.9189393894
C     1.6900387021     -2.718731031     2.0303187581
C     -1.2116092602     -3.8268902251     0.4758031331
C     -0.6740477651     -3.2587442259     1.7601077491
C     -2.0925577983     -3.0559893072     -0.2635315058
C     -0.4006741091     -2.8309182293     -2.0561427879
C     -1.7479169593     -2.6470585993     -1.6086818819
C     1.6475191168     -1.3436630838     -2.0474537305
C     0.2919028369     -1.6144852717     -2.5342836456
C     2.1139272151     -0.0070324957     -1.860196754
C     2.8130140224     -0.6811442029     0.4413353077
C     2.8692013972     0.293849061     -0.629113644
C     1.3518804437     -1.3622260329     2.289067921
C     2.1760523037     -0.3286584803     1.6731832988
C     -1.0670113801     -1.931235822     2.137347153
C     -0.0383278636     -0.9821306617     2.52090318
C     -2.8232449678     -1.9904948678     0.3638708479
C     -2.329415916     -1.4360192697     1.5975262307
C     -2.4854839362     -1.4384276691     -1.8591482361
C     -3.274779228     -1.104299489     -0.6764773402
C     -0.4891314787     -0.4843599925     -2.870873635
C     -1.9026913839     -0.4038325144     -2.5702057754
C     1.3705537792     1.1144575266     -2.4184480992
C     0.0365952043     0.8533902576     -2.8225648884
C     1.6597180544     2.4476482435     -2.0314024546
C     3.0720499654     1.5920275289     -0.2184769113
C     2.7212988332     2.7026468706     -1.0756676782
C     1.9491188516     1.0734037295     1.9390668084
C     2.7167954921     1.9907001182     1.1577461893
C     -0.3695859042     0.4449183015     2.642280313
C     0.6780360684     1.4814923723     2.5097706423
C     -2.6808863459     -0.0932327072     1.8722793046
C     -1.7174057104     0.821873416     2.4725011903
C     -3.5927903741     0.2190811082     -0.3926319589
C     -3.4765696262     0.6479682696     0.9551416246
C     -2.2156267373     0.9874479822     -2.2667985499
C     -1.0175738569     1.7774727427     -2.477682543
C     -3.0794581187     1.3116860998     -1.2328426816
C     0.6131085631     3.4077095448     -1.7486224844
C     -0.7536654342     2.9878411077     -1.7733950371
C     2.4439291586     3.8369733478     -0.3174082851
C     2.3600846036     3.3687222748     1.0793371923
C     1.1166942311     4.2706503247     -0.6867510424
C     0.2883160434     2.8437751694     2.2842755671
C     1.1329877144     3.7624401249     1.6144740802
C     0.3459957955     4.3331941704     0.4803322416
C     -2.0467223168     2.1565318609     1.9853435326
C     -3.0174085775     2.0088749961     0.9582418387
C     -2.7484052536     2.4472066674     -0.3709737344
C     -1.6287828203     3.2952734201     -0.6141446826
C     -1.0662674366     3.1002830684     1.8042901706
C     -0.9785123321     3.8396323034     0.5528401982


