60

 C     -1.1311150538     -4.6709620379     0.1290777566
C     0.1969627764     -4.773215616     -0.1583264556
C     1.0130383689     -4.2476149419     0.9258434224
C     -1.23950945     -3.9437948951     1.4107802188
C     0.1075926308     -3.6097740392     1.8615441412
C     -2.0776910791     -2.8615144095     1.17866573
C     -1.7272591061     -3.8372502114     -0.9165681192
C     -2.4406950391     -2.8414498964     -0.2822898767
C     0.5234797822     -4.0362347695     -1.4031775901
C     -0.6745070678     -3.405931877     -1.8725032079
C     2.002090075     -3.4569548912     0.3105845083
C     1.6533089646     -3.2600114289     -1.1392511408
C     2.4921002251     -2.3632292186     0.9978531069
C     0.4083828876     -2.2803631648     2.3512584395
C     1.718330029     -1.79547643     2.0907633066
C     -1.9103956747     -1.59205231     1.8308112216
C     -0.6344013741     -1.2491112128     2.4480641515
C     -2.7187241519     -0.5657444405     1.3209573375
C     -2.6643975222     -1.5936820748     -0.9237622981
C     -3.1759372667     -0.5847810835     -0.0913354077
C     -0.6262597974     -2.0551942716     -2.3032040996
C     -1.8159567076     -1.2138413161     -2.04241818
C     1.798476743     -1.9586689484     -1.7102750857
C     0.6604260555     -1.3678531865     -2.3911760948
C     3.0935753051     -1.2847396647     0.2906348953
C     2.7906872828     -1.0793896388     -1.102057832
C     2.0523384193     -0.4050798937     2.1685122227
C     3.0798376134     -0.145523819     1.1739461229
C     -0.297310684     0.1581302682     2.5984772288
C     1.099018052     0.5885986428     2.4727689253
C     -2.544065145     0.7792158655     1.7050168641
C     -1.3379250676     1.1693676182     2.3848949346
C     -3.2518078736     0.7538585834     -0.5180517144
C     -3.0861045469     1.6205202864     0.6440659903
C     -1.7963882748     0.1478016794     -2.3755564275
C     -2.6203303611     1.1175227629     -1.7213113419
C     0.6831580022     0.0759848961     -2.678271847
C     -0.5544041544     0.8145685805     -2.7528652047
C     2.903513558     0.2496882356     -1.5764712373
C     1.8287675213     0.83984428     -2.3935346777
C     3.2880082595     1.1208358045     0.6689356784
C     3.3881535124     1.2713881271     -0.7464782717
C     1.4331427916     1.9797236305     2.0874113
C     2.5153811744     2.2298636188     1.194223733
C     -1.0045446975     2.5554916422     2.2943183675
C     0.4032454489     2.9782494202     2.1191468303
C     -2.6642551328     2.9166953405     0.4973463675
C     -1.7887332088     3.4441367076     1.5078073376
C     -1.9628980253     2.4098699064     -1.8153750749
C     -0.659915864     2.2010838819     -2.4596592228
C     -2.1113697447     3.3573093876     -0.8130660004
C     1.7470372922     2.2640600402     -2.1086437892
C     2.6916847231     2.4985336065     -1.0772079638
C     2.347180669     3.2072758286     0.1019409332
C     0.4937163936     2.9661990815     -2.0577870802
C     0.4430552105     4.127391475     1.283600241
C     -0.900904746     4.388104005     0.8871921579
C     -0.9955867022     4.2258130066     -0.5145034312
C     1.2349000634     4.0331293671     0.0754070002
C     0.3228037887     3.9891843108     -1.0667215987


