60

 C     -1.8775491043     -3.6344985699     0.8794660148
C     -0.6824288591     -3.6941171857     1.5341787375
C     0.4008012862     -4.0334240014     0.5862589756
C     -1.5506920876     -3.8780615797     -0.5663216825
C     -0.1150844668     -3.9620229082     -0.7318422348
C     -2.2575486496     -2.9791400694     -1.2934699839
C     -2.705474254     -2.4467218227     0.9664761315
C     -3.1174699791     -2.1879136786     -0.3781875117
C     -2.3366248887     -1.3449159224     1.8094695522
C     -0.2255969864     -2.6188264545     2.3756574117
C     -1.0838718285     -1.4825555576     2.5789521722
C     1.5433294063     -3.3126883956     0.992411876
C     1.1751003693     -2.438112591     2.1246998716
C     2.3919081661     -2.8309469137     0.0150596165
C     0.5585378629     -3.129561449     -1.7070199148
C     1.9204708343     -2.8194031884     -1.3805260674
C     -1.6338825763     -2.0606049698     -2.2262737278
C     -0.2014744069     -2.1013832676     -2.4492137162
C     -3.1672288176     -0.905119861     -0.8619282586
C     -2.2981874573     -0.828836418     -2.0740754437
C     -2.7415005714     0.0009312977     1.3987244216
C     -3.2038021139     0.1891402437     0.0415941831
C     -2.1842500511     1.1942870739     2.0699510716
C     -0.4132971996     -0.3101667507     2.9830217434
C     -1.002075446     1.0106895812     2.839861984
C     1.8152087941     -1.1821737599     2.2958922306
C     1.0098843161     -0.1812820772     2.9059933053
C     3.1812024247     -1.6336212111     0.256332041
C     2.8888262304     -0.7709767057     1.3768784721
C     2.5553407572     -1.7334925348     -1.9892402684
C     3.4275045224     -1.0603654219     -1.0058981184
C     0.431467601     -0.8469338665     -2.8490915274
C     1.8521430823     -0.7362273531     -2.6896857321
C     -1.7224100757     0.4111484817     -2.4445079481
C     -0.3345179837     0.417037571     -2.8813039842
C     -3.0808664746     1.4594494381     -0.5979672949
C     -2.3095767744     1.5640384106     -1.868666022
C     -2.3656064434     2.4988047574     1.4839547286
C     -2.9056427744     2.6165450303     0.1327889464
C     -1.3406236714     3.4791137164     1.5795931314
C     0.0682244721     1.973609168     2.8345807141
C     1.3097770369     1.2284340569     2.7681342772
C     -0.0750333705     3.1726321369     2.1223796408
C     3.0990161944     0.6291547433     1.1816275686
C     2.3275327982     1.6269846416     1.9164732611
C     3.4046410164     0.3184499913     -1.235453407
C     2.4838038198     0.5454650249     -2.3556031915
C     3.3560916668     1.1801951687     -0.1251271538
C     0.3481649182     1.6639218846     -2.7573755294
C     1.7536669211     1.6995381532     -2.3925389725
C     -1.6284369237     2.8180252174     -1.8263127363
C     -2.0600366125     3.5194876344     -0.633396434
C     -1.1160979153     4.039761524     0.2328040718
C     -0.2707367617     2.8318244506     -2.1864651414
C     0.9668308184     3.5556906709     1.1546188467
C     2.1228724721     2.792460008     1.0582765585
C     2.6782011267     2.4576017783     -0.2377260367
C     1.9382643294     2.7526662421     -1.3913485977
C     0.289170841     4.0063648155     -0.0590197153
C     0.7096415409     3.4906416722     -1.300525005


