60

 C     -1.1938953415     4.2402278557     0.8176360305
C     0.1536477357     4.3941539896     0.5924517326
C     0.395336115     4.0731357911     -0.8324518901
C     -1.8557953333     3.7527092457     -0.383517198
C     -0.8831511763     3.5986394732     -1.4095533282
C     -2.6747183735     2.6579914671     -0.0057353201
C     -1.4198779502     3.2575165235     1.8712392569
C     -2.3458569085     2.301707186     1.4034743534
C     0.8632752196     3.6171410026     1.62414847
C     -0.1580885683     2.8352036869     2.3683016089
C     2.0483100544     3.0253381929     1.2705768253
C     1.5643204187     3.4246732021     -1.1458276739
C     2.5322307047     3.1298472687     -0.1033142925
C     1.5483665419     2.2784272899     -2.0899818259
C     -0.9316240356     2.4481295945     -2.2697864511
C     0.3361090586     1.8095798557     -2.6748069509
C     -2.8531254174     1.6412431595     -0.9292378105
C     -2.054167787     1.5795271559     -2.1179638085
C     -3.1029952106     0.2899595538     -0.4778719018
C     -2.2149162378     0.939864966     1.7719160298
C     -2.859145806     -0.051634542     0.888730678
C     0.0435808997     1.4723801084     2.7016544316
C     -1.0630893477     0.5299384583     2.553213229
C     2.345394301     1.6733479124     1.7564526443
C     1.4008066248     0.9364139317     2.5328503103
C     3.0551618355     1.8714917091     -0.4074367063
C     2.5489456425     1.3532570703     -1.6614145164
C     3.0839328125     0.9945040767     0.7386304534
C     2.4490179063     -0.0434723566     -1.8601843337
C     0.3346697888     0.4406482803     -3.0590322289
C     1.4117598212     -0.4505038947     -2.7405189182
C     -2.0112319901     0.1686356116     -2.4883023259
C     -2.748989855     -0.6238669412     -1.5146124459
C     -0.8786164618     -0.3760618578     -3.0455959954
C     -2.4424146593     -1.9860194239     -1.2436048243
C     -2.6874204855     -1.4103652623     1.1476114565
C     -2.6820780543     -2.4012075727     0.1049910377
C     -0.8198894728     -0.907800586     2.7315673678
C     -1.7821032272     -1.8515153816     2.222226945
C     1.5911195041     -0.4564831889     2.5500052378
C     0.5093008462     -1.3901619946     2.8505856449
C     3.0389721386     -0.4045537599     0.5695322696
C     2.8718384389     -0.9729043253     -0.7812609711
C     2.5025947876     -1.1258515851     1.672025925
C     2.474992574     -2.311166753     -0.8625776092
C     0.8937598008     -1.795896423     -2.6905868207
C     -0.5349955393     -1.7602445814     -2.7925973236
C     -1.3454920816     -2.636011728     -1.991482266
C     1.5265242858     -2.7607919176     -1.8972759168
C     -0.6782068573     -3.7663480024     -1.4015783423
C     0.7460005396     -3.8147852448     -1.3985524081
C     -2.004865557     -3.543300331     0.6388904172
C     -1.4284924803     -3.1770109199     1.9600505486
C     -1.0795739004     -4.2464358478     -0.0832246343
C     0.8986421926     -2.7009419968     2.3948861621
C     2.0903295349     -2.4974339886     1.5615527099
C     2.2076046606     -3.1303899602     0.3245640838
C     1.2128847325     -4.1143156048     -0.0307933722
C     -0.0763334923     -3.6350144673     1.9963239679
C     0.1317216909     -4.3931433803     0.7745904828


