60

 C     -0.6255527928     3.9761551245     1.8408458479
C     0.1114979213     4.3924853164     0.7201190004
C     -0.7319544014     4.2274369614     -0.4636330228
C     -1.8795247145     3.4287964315     1.4463427895
C     -1.9732066641     3.5909976932     0.0108011354
C     -1.982605262     2.1259105418     2.021334466
C     0.1157603281     2.9761327481     2.5838531102
C     -0.7320296319     1.8585861112     2.7657300441
C     1.4034615959     3.7435579592     0.7948368833
C     1.3735495879     2.7926414476     1.9643157004
C     2.00201858     3.3428514105     -0.3845075318
C     -0.1181076924     3.7458747345     -1.625287593
C     1.2971353657     3.5072305375     -1.6314508812
C     -0.7350036909     2.6498078474     -2.4020485862
C     -2.5341466169     2.5437963784     -0.7127114041
C     -1.9271120433     2.1106892133     -1.9702189437
C     -2.5857228228     1.0564315328     1.3031754832
C     -2.9550701954     1.3320092466     -0.0474772742
C     -2.2725193083     -0.3236720661     1.6787402248
C     -0.1947590684     0.5654497353     2.7732297316
C     -1.1203805721     -0.5394856696     2.5294778405
C     1.935719679     1.4994678139     1.8858579714
C     1.215291897     0.3749592982     2.4775408872
C     2.709502682     2.0547567299     -0.4243417105
C     2.7945248996     1.202229186     0.7213415058
C     1.5285901791     2.3051488676     -2.3564170447
C     0.3261221685     1.7351256867     -2.8600623724
C     2.4808634455     1.4656760497     -1.7066719063
C     0.1758991425     0.3292983654     -2.9100348176
C     -2.1438345541     0.6918874182     -2.1191878763
C     -2.8988394706     0.2385682892     -0.9880992924
C     -1.1769674709     -0.1786825954     -2.7041316178
C     -2.7237962429     -1.4237600937     0.8351286782
C     -2.9079062959     -1.1095413214     -0.5915994653
C     -2.3153743645     -2.7464414005     1.1749782714
C     -0.5986601762     -1.841738236     2.6697045423
C     -1.2999355822     -2.9306566588     2.1477744573
C     1.7100716068     -0.9916275408     2.2938111227
C     0.8481147325     -2.091939871     2.5376789476
C     3.1454669618     -0.1203659725     0.4575889853
C     2.7857771601     -1.2161113074     1.3703096143
C     2.4440579076     0.0614351231     -1.9002251666
C     1.3151347605     -0.5639266288     -2.5660223835
C     3.123283066     -0.6669503251     -0.8823819059
C     1.0771465309     -1.9826149993     -2.3425772057
C     -1.383436478     -1.5478013409     -2.4764878252
C     -2.3777402856     -2.016812574     -1.5643558399
C     -0.2641784784     -2.5020986092     -2.4597022288
C     -2.0150535685     -3.7276001192     0.1344325574
C     -1.9850733126     -3.3387080642     -1.1808883353
C     -0.670559699     -3.6485614245     -1.763119332
C     -0.3105467953     -3.9103536497     1.6581148689
C     1.0051139808     -3.3690037602     1.8650577896
C     -0.7299144138     -4.401511096     0.4393432071
C     0.1311000348     -4.2566115765     -0.7297670204
C     2.8642099356     -2.4199229391     0.6546872882
C     2.9437790181     -2.0501346061     -0.7603022485
C     1.9521208014     -2.7465068226     -1.4651592781
C     1.9210093569     -3.4650582453     0.7905868011
C     1.4331895398     -3.797194085     -0.5578695426


