60

 C     -1.9908505015     -3.9513300581     -0.9294580636
C     -0.7603567798     -3.869954756     -1.7251965168
C     0.3112360899     -4.1811831097     -0.8971372777
C     -1.5854477138     -4.026783137     0.4745904964
C     -0.2209040249     -4.2733144579     0.5027144762
C     -2.0709767632     -2.8432445891     1.1767565041
C     -2.6298692988     -2.7365648297     -1.0885108941
C     -2.8394022846     -2.1037851425     0.2080537777
C     -0.7246134572     -2.6127030742     -2.4302281628
C     -1.9611171741     -1.9228704268     -2.1039277366
C     0.4563194967     -1.8280307958     -2.4873954027
C     1.4747513384     -3.3785918175     -0.8514443976
C     1.629035714     -2.2427078398     -1.699189958
C     0.6573870393     -3.5590316405     1.3536999212
C     1.839269147     -3.2383274403     0.5660268929
C     -1.2491152768     -2.1171578346     2.0984040506
C     0.1458405251     -2.5666143652     2.2751339615
C     -1.580095256     -0.7198838688     2.3355848007
C     -2.9808124375     -0.7277036683     0.2788056233
C     -2.6061806058     -0.0862242609     1.5283449207
C     -2.0559015324     -0.5354019371     -2.0487402321
C     -2.8588638338     0.0525164278     -0.9698038606
C     0.2818460655     -0.4161775552     -2.8201813974
C     -0.9829296203     0.2570873186     -2.6358437115
C     1.4647812236     0.3932960353     -2.8156000986
C     2.5826995324     -1.2067754941     -1.2742811546
C     2.5604732396     0.0433961917     -1.9199784358
C     2.687737979     -2.2336109     0.9776223945
C     3.1374942906     -1.2062422112     0.0381862706
C     1.0972539904     -1.6264383706     2.7537733376
C     2.3941142781     -1.5794292048     2.1926114546
C     -0.571938534     0.1880491592     2.9350012225
C     0.7404585387     -0.2517562017     3.0581267045
C     -0.7247762558     1.6227087323     2.8350350045
C     -2.8004866791     1.3215078156     1.588199438
C     -1.9136054309     2.1759867099     2.3703832038
C     -2.8921753724     1.4335824867     -0.859196495
C     -3.0969988981     2.0373528869     0.4180786471
C     -1.0342814719     1.7211748562     -2.5061328663
C     -1.9995775161     2.295128028     -1.6358465209
C     1.3910319959     1.7851465548     -2.8975786138
C     0.1736195328     2.4838050315     -2.7097306219
C     3.0079702953     1.2648850145     -1.2760379523
C     2.4026157042     2.340323923     -1.973488434
C     3.2992843976     0.0397052938     0.7613908652
C     2.8200491984     -0.195017466     2.0812860613
C     1.8566458044     0.6332091907     2.6472981389
C     3.0989093836     1.3116483002     0.1497842326
C     0.379258651     2.4983619653     2.415726466
C     1.6357700386     1.9413647647     2.1092519379
C     2.3496481684     2.3555626726     0.884753889
C     -1.6451486818     3.3972620233     1.6509433439
C     -2.3388218634     3.2934789498     0.4373578877
C     -1.6964915025     3.4611307148     -0.8145414455
C     -0.2064993388     3.5682108071     1.6302832276
C     0.4768323176     3.6024115463     -1.8443079174
C     1.8376145511     3.393683302     -1.2994853518
C     1.7559662934     3.4150507679     0.1315119788
C     -0.3623371211     3.9719748791     -0.8090725365
C     0.4346599062     3.9378542036     0.4576153239


