60

 C     3.9588877915     -2.5198685586     0.2242605041
C     4.4864816911     -1.5863958656     -0.694617995
C     4.495532726     -0.3285126458     -0.0626780166
C     3.5521150468     -1.7735859492     1.4426858921
C     3.9184983873     -0.4092392289     1.2964548758
C     2.212260441     -2.0742922781     1.7861161507
C     2.7496835852     -3.0115967383     -0.3033536799
C     1.7422749616     -2.9814239077     0.7125924933
C     3.4899527726     -1.4270893408     -1.7824075716
C     2.4259443839     -2.3432316671     -1.5649246932
C     3.9744984848     0.6682980291     -0.9702763469
C     3.1741081262     -0.0537427782     -1.9884056604
C     3.4693289402     1.7950608076     -0.4301534143
C     3.0516213657     0.6289579236     1.7442348342
C     3.1906990828     1.8754442333     1.0297049158
C     1.3021032703     -1.0716583715     2.2520838496
C     1.7170612726     0.3205498469     2.2911463738
C     -0.1115173797     -1.4027071603     2.2124174976
C     0.4308893436     -2.9219449031     0.3438983578
C     -0.4972949076     -2.5099770489     1.3757624845
C     1.0878084951     -1.9512525911     -1.8310736712
C     0.0512718956     -2.5725157781     -1.0314508688
C     1.8482103518     0.3897461922     -2.2682282451
C     0.7807193114     -0.6139909877     -2.323118377
C     2.4110511822     2.5244520045     -1.1174884194
C     1.5024777693     1.7913118864     -1.9579353869
C     2.2537972231     2.8630474467     1.1787980837
C     1.9140940745     3.4319573366     -0.1580844952
C     0.66671686     1.3509586948     2.326698214
C     1.0160725322     2.6722605499     1.8860069555
C     -1.1393750971     -0.4107000618     2.4543561323
C     -0.7641942692     0.9871248687     2.3152925589
C     -2.5066976445     -0.7801041421     2.2868370716
C     -1.8185932189     -2.7661105454     1.0772163992
C     -2.8533096038     -2.0946083909     1.781851361
C     -1.3087098371     -2.326291574     -1.3140816568
C     -2.2533519801     -2.8038993632     -0.3235493938
C     -0.6083100092     -0.2087017754     -2.4173563602
C     -1.6640152507     -1.1992093835     -2.1672193297
C     0.1087631871     2.1930392287     -1.9649731931
C     -0.9277149813     1.2133453954     -2.3394963184
C     0.5944109772     3.7909035614     -0.1398273207
C     0.0399181863     3.4560071299     1.2009744237
C     -0.2995817313     3.2697624236     -1.1034123566
C     -1.7569402598     1.8648988551     1.7030823934
C     -1.2649376811     3.0308901907     1.0362705263
C     -1.5683864239     3.152073387     -0.4004279946
C     -3.4953508872     0.1069729501     1.7086442046
C     -3.0644395994     1.367386259     1.23920807
C     -4.0507814451     -2.081321791     1.0223321553
C     -3.6260384676     -2.450937515     -0.3431054087
C     -4.4409707544     -0.7200721965     0.9321148327
C     -3.0379334103     -0.7914806383     -2.1266560286
C     -3.9891873518     -1.420373977     -1.2294159876
C     -4.6614577874     -0.3730462792     -0.4385871132
C     -2.2849245261     1.5639456965     -2.0821784204
C     -2.5720524329     2.4422629296     -0.9406090122
C     -3.5370617181     1.7785608349     -0.0829563755
C     -3.2989664734     0.6003892097     -2.0527104387
C     -4.2151585901     0.8502753604     -0.910282261


