60

 C     -0.6227817343     -4.7286702904     0.101116876
C     -1.8806087806     -4.1994478001     0.5427952943
C     -2.4163442139     -3.296543126     -0.4980100103
C     -0.3537669205     -4.0797814374     -1.1301814311
C     -1.4605449145     -3.1972615992     -1.5337112323
C     0.9721831531     -3.5278174035     -1.1506886292
C     0.3932257862     -4.2055308045     0.9926096248
C     1.4475697194     -3.6028703592     0.2252889672
C     -1.6798554911     -3.3870726852     1.6535576406
C     -0.2326764564     -3.3524388127     1.9541302355
C     -2.886946835     -2.0971717866     0.0995099496
C     -2.3818439708     -2.1208920642     1.4720792667
C     -2.8345580709     -0.8934906635     -0.6097980652
C     -1.200327399     -1.9297988436     -2.1582298439
C     -2.0948364307     -0.8241904443     -1.8594509504
C     1.2670567818     -2.3994989481     -1.9465127079
C     0.1669607851     -1.6177911908     -2.5647959476
C     2.4530540408     -1.7073216543     -1.5864523764
C     2.200604021     -2.5367096029     0.7503307632
C     2.9372006269     -1.8040397213     -0.2366010558
C     0.3561023706     -2.1261080795     2.352505453
C     1.7058754843     -1.7963904074     1.9074239887
C     -1.8950248708     -0.9514214705     2.03955263
C     -0.5544902615     -0.9995438983     2.671720608
C     -2.9551493972     0.316170406     0.1907908942
C     -2.4068850161     0.3213552493     1.5211502313
C     -3.0631019787     1.529040117     -0.5218935944
C     -1.8143634572     0.4930091722     -2.3900238478
C     -2.4975133351     1.6212685822     -1.8433647331
C     0.4528016158     -0.2931781969     -2.9603727476
C     -0.5396312262     0.7286152084     -2.9724123141
C     2.7437192781     -0.3476660157     -2.0518727446
C     1.7482578813     0.3483466873     -2.7135638327
C     3.5300224029     -0.5590503124     0.0844552863
C     3.4896197905     0.3354930467     -1.0614382052
C     2.2335133974     -0.4624869097     2.1668340452
C     3.1961512001     0.13584671     1.2534165048
C     0.0051308607     0.2065576941     3.0358988137
C     1.4279487762     0.4497021237     2.8840635624
C     -1.872961127     1.5649848678     2.0382234405
C     -0.6925222385     1.4838596628     2.8278876264
C     -2.8364859937     2.7919122003     0.1277111547
C     -2.0963708738     2.8053515365     1.3243474151
C     -1.9418277428     2.9591430638     -1.9570346804
C     -2.262853171     3.7200523919     -0.8268580326
C     0.1381924746     2.0132205656     -2.7531578368
C     1.5115499121     1.7353178013     -2.4087115
C     -0.5174415237     3.0974115182     -2.2190010714
C     3.1251328543     1.6181799193     -0.6057198224
C     3.1036416508     1.5448620523     0.8620746679
C     2.1340047829     2.3955158805     -1.2922611455
C     1.5658532465     1.8564269186     2.6784048315
C     0.3012350043     2.4883622013     2.7176066047
C     2.2858569982     2.4032500401     1.5588712824
C     -0.986578296     3.7783271282     1.1242295806
C     -1.0202766638     4.1686149748     -0.2511948203
C     0.0846317585     3.8335274075     -1.1009417878
C     1.3308426622     3.3886977712     -0.5399463125
C     0.2459905857     3.5132195305     1.6953702187
C     1.4446383884     3.3985422987     0.8902439213


