60

 C     0.3184831895     4.7114965735     -0.6454790565
C     -1.0199235068     4.4368252251     -0.2778600493
C     -1.0972775736     4.1413524104     1.1208109536
C     1.1292480105     4.3419577386     0.4950992697
C     0.2864762947     4.0167792554     1.5900781133
C     2.0620663731     3.3428491031     0.0928185399
C     0.6419453258     3.7484724666     -1.6720752658
C     1.7808512186     2.9952975495     -1.3009316446
C     -1.5980470577     3.4816465156     -1.2366342719
C     -0.5131938985     3.0085783196     -2.0928091266
C     -2.521976191     2.5648867705     -0.77681276
C     -1.8039158652     2.996448719     1.5453014906
C     -2.6977089531     2.346257428     0.6652245291
C     0.410521561     2.7634286113     2.263366103
C     -0.8929521259     2.150869989     2.3400675349
C     2.4257598936     2.2821451718     0.9661420355
C     1.5369782664     1.8999650302     2.0617262491
C     3.1526377215     1.2537216443     0.3257094616
C     1.9568565304     1.6534267704     -1.7828004435
C     2.9132863223     0.9112701297     -1.0786028503
C     -0.4251117383     1.6263168215     -2.4825459211
C     0.862247082     0.9465329332     -2.4615831593
C     -2.6409371826     1.2842968366     -1.420708375
C     -1.6285771103     0.8195458806     -2.3149141109
C     -2.9704287697     0.9764670539     0.8408518875
C     -3.152408317     0.3555254734     -0.4617481129
C     -1.0705574501     0.7564459573     2.4455327429
C     -2.2822601428     0.200914162     1.8412051462
C     1.401964412     0.4882598762     2.4042018928
C     0.0933348846     -0.1130457364     2.6207219032
C     3.3589938722     0.0542611623     0.9948642957
C     2.4576608984     -0.3887960349     1.9919946606
C     3.0310888509     -0.521068949     -1.2202263868
C     3.49449855     -1.0270547311     0.0200844338
C     0.9280183026     -0.5064740943     -2.565205418
C     2.062551247     -1.2550065678     -1.9880906824
C     -1.536151133     -0.5843955405     -2.4936011401
C     -0.2888758277     -1.2279991687     -2.7422253802
C     -3.0789796357     -1.0404827129     -0.6425242348
C     -2.3930816022     -1.5238939891     -1.7921907168
C     -2.398056468     -1.1816924116     1.7499130871
C     -2.9997310114     -1.8320214488     0.5604467884
C     -0.0786958347     -1.5640609519     2.5320447096
C     -1.3926490348     -2.0550549809     2.2692689462
C     2.2580971579     -1.8186393577     1.7984977976
C     2.9679046774     -2.1916760278     0.5639802337
C     1.048379343     -2.4483597782     2.1247127606
C     1.8877851535     -2.6210164834     -1.6199429084
C     2.3780729308     -3.1012892534     -0.3292974219
C     -0.4392628698     -2.63469799     -2.3839063105
C     -1.764673915     -2.8206387877     -1.7948771137
C     0.6526645193     -3.3499682974     -1.8996444608
C     -2.5441742471     -3.1356662852     0.5021809418
C     -1.6067383981     -3.3372691934     1.6254620775
C     -1.9328590148     -3.688027327     -0.6872707798
C     0.7789782171     -3.7194345503     1.4378803706
C     1.4372659317     -3.9894244104     0.2088129882
C     0.4325071277     -4.2945382669     -0.8300406603
C     -0.5810943887     -4.1395391067     1.2254008233
C     -0.7968243018     -4.445009145     -0.2298542052


