60

 C     -0.0678105615     4.2252429222     -0.4195405966
C     1.1775620367     3.9461032786     0.1631797918
C     0.9144759224     3.4179170515     1.5123537233
C     -1.1407103134     3.8060635828     0.5374227046
C     -0.4906896082     3.2472383878     1.6771857767
C     -2.1201302845     3.0847797992     -0.1630641133
C     -0.3730393111     3.6960735913     -1.6564781534
C     -1.708309752     3.0838007316     -1.5585688267
C     0.5020936076     2.7399786245     -2.2845258927
C     2.1005690164     3.0800392995     -0.4656305494
C     1.7649242702     2.3914423713     -1.705719551
C     1.8185499023     2.3804657548     1.7872345362
C     2.6847599883     2.2936807111     0.6163087358
C     1.3922113151     1.1819204302     2.4413934844
C     -0.9842182819     2.0387881413     2.2602566504
C     -0.0107095332     1.0889319911     2.8036936125
C     -2.6930551785     1.9016260067     0.4113751817
C     -2.2704397699     1.5379633206     1.7690849787
C     -3.1173418962     0.8439248674     -0.4965525282
C     -1.7093135791     1.9104068698     -2.2699559712
C     -0.3334024097     1.685261926     -2.7893030606
C     -2.529055721     0.8066586151     -1.8397043486
C     0.1280923432     0.3844445999     -3.0023321209
C     2.278234532     1.0300415535     -1.928078981
C     1.492778832     0.0172963092     -2.6094596933
C     3.3135631458     1.1291287237     0.3516630837
C     3.2863946005     0.5552500791     -1.0030841968
C     2.2022298919     -0.0439998038     2.2385699211
C     3.26269596     0.0285714524     1.3007296153
C     1.5825113666     -1.3729353596     2.4388998751
C     -0.5003631551     -0.2003096233     3.1912146189
C     0.2682814229     -1.4267462246     2.9186022413
C     -2.7173555563     0.2930923039     2.2843683403
C     -1.8531002639     -0.4997179315     3.1131335502
C     -3.4960358187     -0.4148028072     0.0726342385
C     -3.4331982255     -0.6113117031     1.4544020397
C     -3.1569990342     -1.6921843035     -0.5751468835
C     -2.2273549296     -0.4175765875     -2.4452839989
C     -0.9093414218     -0.626092598     -3.0709015611
C     -2.5980315762     -1.6815215302     -1.8390355184
C     -0.5813903042     -1.9700632277     -2.9373095612
C     -1.5852996362     -2.6353580494     -2.1395288041
C     1.7944603735     -1.425049185     -2.4043469194
C     0.7156840371     -2.3623256509     -2.4760828648
C     3.6114641073     -0.7878918706     -0.8727043537
C     3.6845944218     -1.123817999     0.5580836672
C     2.8682315209     -1.8151505613     -1.538921162
C     1.9836915314     -2.5009289398     1.6332482101
C     3.070687854     -2.3425066104     0.7168369227
C     2.6885362499     -2.8814393534     -0.5917840912
C     -0.9286115743     -3.3694751021     -1.1271507513
C     0.4917032809     -3.3582580008     -1.4400887508
C     0.9914987372     -3.3173614589     0.9779382329
C     1.4354321978     -3.4844247171     -0.4235947347
C     -0.6618819114     -2.4378550917     2.4817355754
C     -1.9682155877     -1.9057499843     2.687488013
C     -2.9111360825     -1.9763245157     1.6895084627
C     -2.6432297398     -2.6107953412     0.4363499822
C     -0.3819698603     -3.2307891899     1.311272922
C     -1.404171188     -3.3033702749     0.2377097504


