60

 C     -0.5277596233     -4.689646773     0.4820783987
C     0.7200758737     -4.5670086626     -0.2451215682
C     1.6489158542     -4.0162577476     0.6386318683
C     -0.4047395401     -4.0212976379     1.7768885298
C     0.936626008     -3.6416202918     1.9017155767
C     -1.4244515248     -3.0124346366     1.8808809375
C     -1.5276235228     -4.0467727798     -0.245718219
C     -2.2269729248     -3.1544693173     0.6502581112
C     0.4345461882     -3.8523557286     -1.4854661781
C     -0.9861961774     -3.5046779102     -1.4898823273
C     1.3277879144     -2.87964837     -1.9189148745
C     2.4709159126     -2.9199005342     0.2633686844
C     2.4435008718     -2.4603927837     -1.066387715
C     1.2859198791     -2.3104877493     2.2031376804
C     2.3730234649     -1.9083734404     1.2984127865
C     -1.1201731665     -1.6934931292     2.3262939121
C     0.2846055049     -1.3332171091     2.5366981663
C     -2.0275665818     -0.5970918804     1.9451725055
C     -2.8071459799     -2.0529067156     0.1074392772
C     -2.9251488115     -0.8524327384     0.884625078
C     -1.4392500135     -2.2437686277     -1.9791157521
C     -2.5344054874     -1.632230818     -1.2741758753
C     0.8627349443     -1.6856434256     -2.6062680839
C     -0.5079771916     -1.3104966597     -2.6353827824
C     2.7219276095     -1.084929488     -1.3384354971
C     1.8730352746     -0.6741455782     -2.4432926231
C     2.6191991033     -0.5690442915     1.0455800761
C     2.95270386     -0.1379995793     -0.3124201976
C     0.687403621     0.0492592017     2.5257888765
C     1.9808750169     0.3931595281     1.9390139627
C     -1.6771056627     0.7975109185     2.2191899139
C     -0.3075862256     1.1164159822     2.6572682406
C     -2.4110957237     1.8198998837     1.5659767559
C     -3.2625570219     0.1889191418     -0.0365593445
C     -2.8292985826     -0.2545241172     -1.3648130291
C     -3.1476860365     1.4894509364     0.3569150835
C     -0.8389210583     0.1220384397     -2.7626250573
C     -2.0706435916     0.6511659736     -2.1815765936
C     1.5739361518     0.650348676     -2.6349562737
C     0.2265377483     1.056719258     -2.908928489
C     2.8617342617     1.2820875974     -0.6330416228
C     2.2249879351     1.6781913991     -1.8474761731
C     2.328209288     1.7346374675     1.7772451162
C     2.8202317928     2.2138032486     0.4463544136
C     0.1364567447     2.4574600736     2.6117314672
C     1.5209218235     2.7476372451     2.3374537344
C     -1.8490932638     3.1487100505     1.3474704304
C     -0.6453751127     3.5025220229     1.9222101599
C     -2.8064380109     2.4572590584     -0.6416080031
C     -2.1666141331     2.0434051022     -1.8561024383
C     -2.1032532762     3.524189644     -0.0379286917
C     0.1332928563     2.4531078393     -2.5118268412
C     1.4125211328     2.8626636261     -1.906578769
C     -1.0540403625     2.9648625179     -2.0323438176
C     -1.0292402438     3.9156297275     -0.9015503266
C     2.3094827129     3.5110949021     0.2548745871
C     1.5745912685     3.8714606568     1.4554323773
C     0.2839939372     4.2979874929     1.1309529323
C     1.4507464578     3.79313945     -0.8662821215
C     0.1769176387     4.3125310589     -0.3242800543


