60

 C     -2.7510330323     -0.5545796518     2.7955903111
C     -3.4490506433     -0.9567758123     1.6712937406
C     -3.839420449     0.2523285674     0.8990361206
C     -2.6421186463     0.9307192457     2.7608922278
C     -3.2631702751     1.3882273004     1.5593556133
C     -1.3323285995     1.275914503     3.0863556825
C     -1.4893425642     -1.106986462     3.0901361999
C     -0.6720725774     0.0354107565     3.5146157982
C     -0.9006289306     -2.1147333016     2.2549165077
C     -2.9073101161     -1.9159432352     0.7919161496
C     -1.6365550873     -2.5242779811     1.0532109891
C     -3.6297823755     0.001070849     -0.4516281027
C     -3.2184205786     -1.4122684498     -0.5579677964
C     -3.0009971809     0.9825017232     -1.3177887365
C     -2.551254704     2.3009078484     0.7671641467
C     -2.5423524114     2.1651950512     -0.6754037424
C     -0.5687484973     2.2224765752     2.2855462186
C     -1.2438383256     2.7694254358     1.1696139738
C     0.9006289306     2.1147333016     2.2549165077
C     0.6720725774     -0.0354107565     3.5146157982
C     1.4893425642     1.106986462     3.0901361999
C     0.5687484973     -2.2224765752     2.2855462186
C     1.3323285995     -1.275914503     3.0863556825
C     1.2438383256     -2.7694254358     1.1696139738
C     -0.8926865651     -3.0225345771     -0.1186001729
C     0.5131410964     -3.1439659443     -0.0359527956
C     -2.5292148244     -1.8464219088     -1.6361565801
C     -1.430659133     -2.8029675097     -1.4414651784
C     -2.29861973     0.5045012099     -2.5280584743
C     -2.1837118011     -0.9285020175     -2.7283296758
C     -1.2714589096     1.3024409469     -3.0904434633
C     -1.3668738178     2.8531127183     -1.1633576226
C     -0.5131410964     3.1439659443     -0.0359527956
C     -0.8218521144     2.5136901559     -2.3956508951
C     1.6365550873     2.5242779811     1.0532109891
C     0.8926865651     3.0225345771     -0.1186001729
C     2.9073101161     1.9159432352     0.7919161496
C     2.7510330323     0.5545796518     2.7955903111
C     2.6421186463     -0.9307192457     2.7608922278
C     3.4490506433     0.9567758123     1.6712937406
C     2.551254704     -2.3009078484     0.7671641467
C     3.2631702751     -1.3882273004     1.5593556133
C     3.839420449     -0.2523285674     0.8990361206
C     1.3668738178     -2.8531127183     -1.1633576226
C     2.5423524114     -2.1651950512     -0.6754037424
C     -0.5814523775     -2.6238732618     -2.5379285746
C     -1.0457282787     -1.4772981519     -3.3308080669
C     0.8218521144     -2.5136901559     -2.3956508951
C     -0.0806498494     0.6978740561     -3.690103902
C     0.0806498494     -0.6978740561     -3.690103902
C     1.2714589096     -1.3024409469     -3.0904434633
C     0.5814523775     2.6238732618     -2.5379285746
C     1.430659133     2.8029675097     -1.4414651784
C     1.0457282787     1.4772981519     -3.3308080669
C     3.2184205786     1.4122684498     -0.5579677964
C     3.6297823755     -0.001070849     -0.4516281027
C     3.0009971809     -0.9825017232     -1.3177887365
C     2.29861973     -0.5045012099     -2.5280584743
C     2.5292148244     1.8464219088     -1.6361565801
C     2.1837118011     0.9285020175     -2.7283296758


