60

 C     0.9600462728     4.5777659005     0.7152098395
C     1.1733620778     4.5517247624     -0.6536348714
C     -0.1068611892     4.2610268253     -1.3149254747
C     -0.4456511563     4.3329869681     1.0021731007
C     -1.1298802471     4.2065797088     -0.2835952759
C     -0.4946980432     3.2482348932     1.8924583203
C     1.7828988628     3.579121826     1.3702561816
C     0.9088386732     2.7730677952     2.1263700581
C     2.1198735212     3.512870536     -0.9531823779
C     2.5451692888     2.9179812759     0.3335382088
C     0.0944707226     3.120625373     -2.1102088543
C     1.4888871507     2.6545077038     -1.8805632346
C     -0.921088327     2.1229934995     -2.2840024582
C     -2.1011113894     3.2315912768     -0.3971054246
C     -2.1136296058     2.3205664726     -1.5293998272
C     -1.5473872079     2.2724803873     1.8367429471
C     -2.4656426745     2.4012047892     0.7510084632
C     -1.3259527367     0.9489823695     2.4134634695
C     1.153155568     1.3904551809     2.2978118656
C     0.0531797664     0.520373073     2.7031285839
C     2.7397896146     1.5491812593     0.4017400296
C     2.2526828794     0.7981675786     1.5634836786
C     1.7795164502     1.2685400019     -1.9053792883
C     2.6781401714     0.7969330586     -0.8616990668
C     -0.537332917     0.7513425162     -2.6472989974
C     0.8602524515     0.3166727646     -2.498859385
C     -1.5212833925     -0.2561169228     -2.5655095593
C     -2.9270862481     1.1892990709     -1.1731624965
C     -3.1547451221     1.2443276091     0.2621028817
C     -2.7258759828     -0.0309926684     -1.7770887275
C     -2.2688759242     -0.0710622366     2.1302765362
C     -3.16273585     0.066059098     0.9921190807
C     -1.9528754664     -1.4687936175     2.2564233643
C     0.3286672703     -0.8515436502     2.8313509843
C     -0.6875651014     -1.864315556     2.6821708019
C     2.4602264107     -0.6228075305     1.6063357587
C     1.5769031853     -1.4338167878     2.3647125033
C     2.9533459121     -0.5445485405     -0.8207790757
C     3.1003188274     -1.2502379078     0.4700760785
C     1.1897163788     -1.0991888606     -2.4566403494
C     2.3985074851     -1.4584395398     -1.7703254034
C     -1.2025486751     -1.6579315021     -2.4768460396
C     0.1384780252     -2.130712239     -2.523991985
C     -3.0263465176     -1.2573009729     -1.0708255917
C     -3.2367764021     -1.2121791626     0.3196074359
C     -2.5956357373     -2.1997103918     1.1694172365
C     -2.1896449223     -2.2887670445     -1.6179629093
C     -1.9819828337     -3.3203997296     0.6310105388
C     -1.8313711331     -3.4000661256     -0.8363084363
C     -0.0762146525     -3.0821681889     2.185145463
C     1.3547999667     -2.8318782663     2.0499569939
C     -0.7601434517     -3.8536150195     1.2235705473
C     2.9634549855     -2.6038492972     0.2269946059
C     2.5820016461     -2.7613113892     -1.2075384271
C     2.0838891776     -3.4389728891     0.9976319794
C     0.3727484272     -3.4464699561     -1.9605195712
C     -0.6190680488     -4.0391660269     -1.1254791603
C     0.0105571766     -4.4375361252     0.1551966577
C     1.63240337     -3.736480383     -1.313850527
C     1.37372934     -4.2752852463     0.0551986008


