60

 C     1.0983651465     -4.1511819257     -0.7331891146
C     0.5125737116     -4.1286891368     0.5564562169
C     -0.8811747734     -3.7841425326     0.4434054569
C     0.1105420024     -3.7536964577     -1.7006945593
C     -1.1490851078     -3.6533562584     -0.9926568157
C     0.5851533191     -2.6165194009     -2.3969191356
C     2.1742928061     -3.2221784966     -0.7544923439
C     1.9046890732     -2.2890100477     -1.8228459443
C     1.3863798839     -3.3543248117     1.4174535309
C     2.4021552418     -2.7202696475     0.5693286875
C     0.8123014294     -2.6131488065     2.410721324
C     -1.481068582     -2.8729775877     1.3750304994
C     -0.6513088656     -2.496783227     2.4923986115
C     -2.50167128     -1.9075482851     0.9180924492
C     -2.0569987817     -2.7243624989     -1.4193476507
C     -2.8661612728     -1.9678324826     -0.4643132137
C     -0.3065054307     -1.5603676337     -2.7854830515
C     -1.6881543944     -1.7891373566     -2.488760043
C     0.1805527935     -0.1855564553     -2.8529463279
C     2.313516372     -0.9749903891     -1.7156887918
C     1.5728381422     0.0661370927     -2.4737398252
C     2.7503948426     -1.3622814404     0.7485643846
C     2.981762806     -0.5794584272     -0.462404934
C     1.3900817628     -1.3217918776     2.7950438556
C     2.3039876475     -0.6388764493     1.9416764913
C     -0.8995479031     -1.2910017648     3.1445699566
C     0.3679787732     -0.5864593626     3.415490212
C     -2.6723658051     -0.5996564393     1.5882714385
C     -1.8573960252     -0.347959004     2.7316241537
C     -3.1414693623     0.590113732     0.8496677553
C     -3.3105316272     -0.8112999508     -1.1413692869
C     -2.5498652897     -0.6915302178     -2.378768242
C     -3.4104912148     0.4567964352     -0.5526292175
C     -0.7508183258     0.94059445     -2.7821893548
C     -2.1270992616     0.6379912863     -2.5159556858
C     -2.8664054042     1.4136587818     -1.5189818196
C     -0.2753316429     2.2910814893     -2.4186541441
C     2.026682774     1.3791067549     -2.3580586121
C     1.1301423383     2.5203401725     -2.3602342707
C     3.3024006179     0.7572625204     -0.2994451743
C     3.0839138932     1.6825517546     -1.3984795119
C     2.2829564251     0.8289057697     1.948862977
C     3.0246719908     1.4750558232     0.9270903627
C     0.1803186949     0.7829599299     3.2210344918
C     -1.2528373794     0.9716983669     2.9692764205
C     1.1582509997     1.5645158558     2.5366471058
C     -2.7052615627     1.8934687557     1.2589902855
C     -1.6757197829     2.0624517342     2.2822624376
C     -2.3689136375     2.6168861231     -1.0889749998
C     -1.1028993906     3.1241744626     -1.594052413
C     -2.463370277     2.9180706182     0.3111142949
C     0.6989476309     2.8119793676     1.9142765693
C     -0.7111907817     3.0687421057     1.8438891228
C     -0.4936000229     3.8716418939     -0.5060370688
C     -1.2729543007     3.6363477468     0.6689512786
C     1.6951649544     3.4834930021     -1.4462100427
C     2.9283412795     2.9743271595     -0.9137643179
C     2.7304468531     2.8247259489     0.5279956859
C     0.8907004795     3.9289559646     -0.3643228741
C     1.5096927007     3.4223531738     0.8934225306


