60

 C     -0.2720369987     -4.2075524229     1.1483601048
C     0.2870879083     -4.2030733268     -0.1460472967
C     1.546761858     -3.5377061186     -0.1037294551
C     0.5451179434     -3.3959650313     2.000000274
C     1.7253247387     -3.0403490158     1.2633768482
C     -0.2581504263     -2.3150334085     2.4340852927
C     -1.5893252318     -3.6390094277     1.0731685244
C     -1.6440855069     -2.5138686918     1.9403970732
C     -0.7432416229     -3.7699076099     -1.0969763235
C     -1.9597863903     -3.4872617152     -0.3064534207
C     -0.3888336027     -2.8780559514     -2.0946003198
C     1.9522731942     -2.701540737     -1.1979603352
C     0.9780077537     -2.3625936634     -2.192308952
C     2.9454906302     -1.743809391     -0.9333657213
C     2.3598739206     -1.8070951252     1.4938860558
C     3.2543561895     -1.3837966703     0.4601717066
C     0.2772431259     -0.9906484721     2.600882659
C     1.6740845734     -0.7576441456     2.2791390251
C     -0.677553507     0.1076833319     2.652187352
C     -2.4477952701     -1.4015220346     1.6148677055
C     -2.0609736152     -0.0845836589     2.1540648842
C     -2.7648248831     -2.4096564037     -0.6373948372
C     -3.1779096497     -1.4688497552     0.3774606173
C     -1.2846161774     -1.7987005314     -2.4937301007
C     -2.494927348     -1.6118725667     -1.8326994119
C     0.9138479471     -1.0219027179     -2.6822977523
C     -0.4851657443     -0.6506838882     -2.8348973921
C     3.0552968929     -0.5235071119     -1.6806400154
C     1.9200834396     -0.0481762879     -2.4183638923
C     3.8197827913     -0.110879338     0.4805625739
C     3.8130583103     0.3947830868     -0.87475535
C     2.1704738586     0.6102706946     2.2012215916
C     3.3112556778     0.9127834865     1.3591971208
C     -0.1570752241     1.42295374     2.6816576388
C     1.244168972     1.6704846283     2.4267874034
C     -0.9197584018     2.56639973     2.2327840078
C     -2.7702841506     1.0358276881     1.7013848134
C     -2.2300375732     2.3870725848     1.7722808485
C     -3.5077577449     -0.2457304323     -0.2843411796
C     -2.9872628894     -0.2848922819     -1.640425399
C     -3.5253054786     0.9422446871     0.4355926856
C     -0.9338362638     0.681478226     -2.6610876119
C     -2.3008282257     0.8613242755     -2.1489092325
C     1.5052389779     1.362398925     -2.3123417509
C     0.0941227307     1.7166574184     -2.4393010243
C     3.4567296644     1.7256537666     -0.8184121678
C     3.3060585852     2.1171422951     0.6019205264
C     2.3466052029     2.2432725059     -1.5346314256
C     1.3289874759     2.9416212191     1.7243862993
C     -0.0036956696     3.4560302291     1.5409784966
C     2.2715464803     3.0548205379     0.6900995082
C     1.7588773428     3.2703750207     -0.6785627012
C     -0.3448361892     2.9664734527     -1.8662134662
C     -0.3870601625     3.9826032474     0.2831899144
C     0.4735939211     3.6662650198     -0.8681555187
C     -2.6495517709     3.1041643643     0.6053018047
C     -3.3119959291     2.1308584194     -0.2725915338
C     -2.6551519449     2.1121850834     -1.5476503574
C     -1.72108929     3.8082680093     -0.1518784896
C     -1.680597324     3.1437720593     -1.4786712215


