60

 C     -0.4482760395     -4.6786523407     0.5559362518
C     -1.6207352464     -3.9883004156     0.8635795845
C     -2.2583828024     -3.6055028789     -0.3711523992
C     -0.1526951232     -4.4048757175     -0.8781845193
C     -1.2571986152     -3.803825782     -1.4603251977
C     1.1257037828     -3.7798505521     -0.9902227349
C     0.6199922612     -4.0729925004     1.2770491932
C     1.685292391     -3.7562333619     0.3813239043
C     -1.2956885268     -2.9341946743     1.8570186059
C     0.1260292952     -3.0272132818     2.1404228183
C     -1.9078769762     -1.6821104296     1.7851292389
C     -2.7719793313     -2.3432272116     -0.4953907737
C     -2.8465403248     -1.4547949733     0.6596387042
C     -1.1375591633     -2.5605477683     -2.1593601716
C     -2.2276482719     -1.7377797831     -1.7364049764
C     1.3057477689     -2.6127476069     -1.8172385928
C     0.1244461188     -1.9189913324     -2.3905538958
C     2.4553612569     -1.8193562882     -1.5116489099
C     2.5646889413     -2.7538493913     0.7509307234
C     3.1879498191     -2.0056883911     -0.2979197007
C     0.8999651044     -1.8441371773     2.3414303698
C     2.227096941     -1.8166938173     1.7999165093
C     -1.2057894037     -0.4946211434     2.316766772
C     0.2140102035     -0.5716042211     2.5346890949
C     -1.8581661442     0.8110815183     2.1703146166
C     -3.2183727539     -0.1727963463     0.3565808567
C     -2.9511164392     0.9406704449     1.2419736519
C     -2.2598638026     -0.3665539478     -1.9341747494
C     -3.1373146447     0.3416068887     -1.0304596735
C     0.1314933834     -0.4708165287     -2.6038772137
C     -1.0987362633     0.3197788821     -2.4738600554
C     2.5087968549     -0.4175679627     -1.8568424434
C     1.400272405     0.2424825893     -2.4520473726
C     3.525477054     -0.7202203836     0.1967843945
C     2.8492693857     -0.5609508472     1.436944296
C     3.2469334788     0.255986877     -0.8127613899
C     1.0044299696     0.67395207     2.4783184445
C     2.2788874018     0.6970543292     1.7846500123
C     -1.1249412291     1.9948792258     2.4195410686
C     0.3217609899     1.9048341724     2.6143332938
C     -1.4081091428     3.2531254599     1.7470003226
C     -3.0991596739     2.1149445186     0.4796751433
C     -3.0825676661     1.7057768078     -0.9415253444
C     -2.2791101487     3.2358386133     0.6282816252
C     -1.070711972     1.7854285832     -2.3595312255
C     -2.0877380039     2.4772580076     -1.6052856321
C     -1.7568929235     3.5984621727     -0.7170778745
C     1.4181451864     1.6569962048     -2.3507011536
C     0.1921711461     2.4605883556     -2.4300861263
C     2.9822262456     1.5768727246     -0.4518042026
C     2.6422635669     1.8608630882     0.9668782287
C     2.3083942411     2.3298036763     -1.4572357968
C     0.9084402632     3.0976188378     2.1451358326
C     -0.1675745198     3.947659872     1.6000355735
C     2.0037167059     3.0877077203     1.2500216007
C     -0.5201633513     4.222437137     -0.8269181142
C     0.4057631917     3.6954798057     -1.7921265446
C     1.7144459198     3.5928580749     -1.1369451983
C     0.2471648074     4.4829417889     0.3930379286
C     1.6245725225     4.0117086094     0.1683234219


