60

 C     1.5162267839     -4.4189925655     0.5486813052
C     0.2713712288     -4.5837973446     1.0824754948
C     -0.7478783718     -4.3981278978     0.0369613313
C     1.3668533223     -4.0585011131     -0.8793097881
C     -0.0569230293     -4.1114036762     -1.2109097999
C     2.0724502205     -2.8754115323     -1.0822869473
C     2.1929337474     -3.3306419977     1.2456492264
C     2.6154099372     -2.4494522979     0.2489407089
C     0.0676547443     -3.582979247     2.1342287323
C     1.2735181589     -2.7739202508     2.2281582356
C     -1.6631502852     -3.4614538502     0.5275256854
C     -1.1204986849     -2.9251135037     1.8265966287
C     -2.3221750158     -2.5456753699     -0.3469923765
C     -0.5716009631     -3.0931446317     -2.0077110332
C     -1.8272482609     -2.4762190982     -1.682449534
C     1.5898628941     -1.8282953902     -1.9680359274
C     0.2850183398     -2.0034899711     -2.5176906834
C     2.0933956152     -0.5013286766     -1.828907923
C     2.7299398549     -1.0766340625     0.5098006322
C     2.901109513     -0.2021291905     -0.6342890251
C     1.1644824514     -1.3702911895     2.3754703393
C     2.1416889142     -0.5249247611     1.6968034882
C     -1.3006624234     -1.5452064825     2.1257562539
C     -0.1524758202     -0.7628457096     2.5318508229
C     -2.9443361259     -1.3664256855     0.2326084833
C     -2.4565700557     -0.8909695823     1.5353830953
C     -3.4282252247     -0.3770859254     -0.6756687872
C     -1.8686173729     -1.1984225981     -2.3629430697
C     -0.5263223945     -0.864867111     -2.7985679038
C     -2.7143656279     -0.2184787807     -1.9508549343
C     1.3629435356     0.6280509399     -2.3980571606
C     -0.0442792312     0.470109368     -2.7131624639
C     1.8231914424     1.9378998699     -2.1480135004
C     3.2565267749     1.0919014479     -0.337122214
C     2.9764249173     2.1507744804     -1.2816719018
C     2.1182131797     0.9137280089     1.8504564496
C     2.9903302396     1.653229388     0.9890910207
C     -0.2608382728     0.6913233101     2.5908849622
C     0.9281538291     1.5464178442     2.3928085389
C     -2.656879032     0.4591389859     1.8966758228
C     -1.5483840894     1.2410072156     2.4360527074
C     -3.7242262972     0.9206940716     -0.2377204639
C     -3.4293724821     1.3208762218     1.0585972024
C     -2.3387205062     1.1884217894     -2.097415943
C     -0.9759053495     1.5606933403     -2.3992548253
C     -3.0747179221     1.907688744     -1.1491601285
C     0.9327660875     3.0466329971     -1.9342376787
C     -0.4778637838     2.8237825824     -1.8628201987
C     2.9041755625     3.382718134     -0.6454465708
C     2.8323411285     3.0650590777     0.792838325
C     1.621433137     3.9546813444     -1.0092446087
C     0.7401078889     2.935098521     2.0826460513
C     1.6888701629     3.6607100302     1.3151480978
C     0.9435398304     4.2616439296     0.1661731123
C     -1.6960406391     2.5982305065     1.9146770718
C     -2.7495323434     2.6081248932     0.9855522021
C     -2.4930477829     2.9553509822     -0.3909149867
C     -1.2214768174     3.4815654889     -0.7608262997
C     -0.5744110191     3.3613540637     1.6253501743
C     -0.4341883181     3.9993220166     0.3278446752


