60

 C     0.2121353496     4.5786508004     -0.3190905193
C     -1.1059333044     4.430408618     0.01410475
C     -1.790950119     3.7580259863     -1.1325122917
C     0.4034540242     3.9862147998     -1.6803502981
C     -0.7975168626     3.3053272335     -2.0760581469
C     1.614437363     3.3449732111     -1.6769742479
C     1.2743903441     4.0690301361     0.5361290147
C     2.2261087711     3.4482179619     -0.3365916964
C     0.904706411     3.3865755553     1.7238877968
C     -1.5102640678     3.7428687499     1.2356780305
C     -0.4969520281     3.2085928306     2.0694086501
C     -2.701332814     2.8872509176     -0.5976258719
C     -2.598752064     2.896127924     0.8843204261
C     -2.7604225565     1.537905476     -1.0372696104
C     -0.7352991551     1.9036269912     -2.431295812
C     -1.824955622     1.0313543333     -1.9964626104
C     1.7342493279     1.9944252578     -2.1208823524
C     0.5872376564     1.258140025     -2.5436254487
C     2.8157985402     2.2151549927     -0.050180303
C     2.6716642018     1.3546398842     -1.2260249806
C     1.6041288797     2.1645657837     2.0844809043
C     2.6063081354     1.5993606225     1.2365674924
C     -0.6412542765     1.8587392342     2.5908605384
C     0.6739679481     1.2706494673     2.7211859639
C     -2.6795233327     1.5626737034     1.303156101
C     -3.0005222477     0.7458963026     0.1387544183
C     -1.7186961257     1.0047937243     2.2267584639
C     -2.8131674944     -0.6194082476     0.1349506987
C     -1.6972865426     -0.4093469959     -2.0606246256
C     -2.4572555185     -1.2316234074     -1.135916194
C     0.7030322512     -0.1938899617     -2.5618306991
C     -0.4971888281     -1.0056895409     -2.6281086545
C     2.7480063161     -0.0320666791     -1.1489010598
C     1.9017221398     -0.8272061644     -2.0236817812
C     2.81571516     0.2029633371     1.3120244001
C     3.0630689068     -0.5970162026     0.1328205558
C     0.8536920872     -0.1317222601     2.7654601909
C     2.0625181773     -0.6426698903     2.1947430405
C     -1.5576978144     -0.4444644667     2.2621065869
C     -2.3674608641     -1.2607581566     1.3702128782
C     -0.3039060317     -1.019086139     2.7241615056
C     -2.1720668684     -2.6597105031     1.3260020608
C     -2.2955912306     -2.6428532966     -1.1406643673
C     -2.2919823298     -3.3702520915     0.0967052271
C     -0.3683755692     -2.4266311917     -2.6179096545
C     -1.3399901971     -3.2485443715     -1.9940359913
C     1.9389295173     -2.2409299998     -1.8354519226
C     0.8980883024     -3.0330718979     -2.2914430386
C     2.8192193919     -1.9755081686     0.4338773519
C     2.1943463379     -2.0145236031     1.7524161971
C     2.3856193065     -2.8417165928     -0.5522390109
C     -0.0704373144     -2.4223152641     2.5485090672
C     -1.0569730348     -3.246028117     2.0122014449
C     1.208331628     -2.9345241045     2.0058490146
C     -1.2745598755     -4.426511836     0.0271090546
C     -0.6856905628     -4.3629775982     -1.2625819045
C     0.6895197763     -4.1794665418     -1.3853088285
C     1.5322996398     -3.9760050995     -0.2356889736
C     -0.4647312358     -4.3016970408     1.1690079528
C     0.9340398976     -4.028938529     1.0658811175


