60

 C     1.9527112445     -4.0871076331     0.
C     1.0852144134     -3.991734146     1.1633249864
C     -0.2361571519     -4.1740249563     0.7517300455
C     1.0852144134     -3.991734146     -1.1633249864
C     -0.2361571519     -4.1740249563     -0.7517300455
C     1.3942915069     -2.7809928963     -1.8983778092
C     2.7431469531     -2.9369264255     0.
C     2.5212727141     -2.1824434861     -1.219096758
C     1.3942915069     -2.7809928963     1.8983778092
C     2.5212727141     -2.1824434861     1.219096758
C     0.3701248135     -1.9194732022     2.4001163032
C     -1.2632043208     -3.3203868729     1.1812004283
C     -1.0267605285     -2.2293826375     2.0944193733
C     -1.2632043208     -3.3203868729     -1.1812004283
C     -2.0807113893     -3.0342623554     0.
C     0.3701248135     -1.9194732022     -2.4001163032
C     -1.0267605285     -2.2293826375     -2.0944193733
C     0.7500462476     -0.5308184172     -2.6722911867
C     2.7710765512     -0.8045083976     -1.2426725993
C     2.0160466157     -0.0017220917     -2.1832859455
C     2.7710765512     -0.8045083976     1.2426725993
C     3.2294961752     -0.1766592506     0.
C     0.7500462476     -0.5308184172     2.6722911867
C     2.0160466157     -0.0017220917     2.1832859455
C     -0.287503592     0.412463746     2.926568718
C     -2.0272147862     -1.1672376407     2.1275702783
C     -1.6556089639     0.1154540549     2.6390674392
C     -2.9781758319     -2.0210835892     0.
C     -3.1067832007     -1.17624359     1.1787574339
C     -2.0272147862     -1.1672376407     -2.1275702783
C     -3.1067832007     -1.17624359     -1.1787574339
C     -0.287503592     0.412463746     -2.926568718
C     -1.6556089639     0.1154540549     -2.6390674392
C     -0.0967618384     1.8490436942     -2.7552254825
C     2.2182537644     1.4198831942     -2.1376000303
C     1.1242237824     2.3602517737     -2.3912799638
C     3.4100474028     1.2094823963     0.
C     3.0251246193     1.9799564661     -1.1439303597
C     2.2182537644     1.4198831942     2.1376000303
C     3.0251246193     1.9799564661     1.1439303597
C     -0.0967618384     1.8490436942     2.7552254825
C     1.1242237824     2.3602517737     2.3912799638
C     -2.2970052365     1.3530068243     2.1938791909
C     -1.3215198532     2.4110918175     2.2172153396
C     -3.6753302688     0.0362382228     0.7244470859
C     -3.6753302688     0.0362382228     -0.7244470859
C     -3.2543981471     1.3137138383     1.1748987304
C     -2.2970052365     1.3530068243     -2.1938791909
C     -1.3215198532     2.4110918175     -2.2172153396
C     -3.2543981471     1.3137138383     -1.1748987304
C     -3.0777080403     2.1736281991     0.
C     -1.2468952027     3.3453521593     1.1721544559
C     -1.2468952027     3.3453521593     -1.1721544559
C     -2.0912762377     3.1463952401     0.
C     1.2093760399     3.4598575771     -1.4280375607
C     2.4135025903     3.2489470246     -0.6937756105
C     2.4135025903     3.2489470246     0.6937756105
C     1.2093760399     3.4598575771     1.4280375607
C     0.0428245434     3.8369744557     -0.7310932467
C     0.0428245434     3.8369744557     0.7310932467


