60

 C     -0.7903594577     5.0032820578     0.7681196693
C     0.5587942359     5.2101250369     0.570267531
C     0.8592271868     5.0164153908     -0.8399722129
C     -1.3963906978     4.5239367273     -0.519593512
C     -0.3952436907     4.5161049551     -1.4966477045
C     -2.0949261802     3.3142104213     -0.2372854222
C     -0.980038418     3.9477652657     1.7343189975
C     -1.8543113796     2.9974088946     1.1911907978
C     1.2866525818     4.1922381897     1.3643537468
C     0.3397510609     3.4329344785     2.1445722278
C     1.7484184168     3.9618854129     -0.9170287368
C     2.0889444139     3.4688808533     0.4555523988
C     -0.1110769164     3.2759190203     -2.1665230915
C     1.2716343151     2.9489768029     -1.8669971248
C     -2.0700481141     2.2172904277     -1.1285385789
C     -1.0125135797     2.1780795037     -2.1295572968
C     -2.5839810785     0.955595155     -0.6248948206
C     -1.8119363568     1.6346324093     1.6097820757
C     -2.5506824122     0.695776832     0.8107586079
C     0.5120868808     2.0425446169     2.3110280225
C     -0.672421088     1.1594594618     2.3405637745
C     2.2943377276     2.0913183249     0.6177497352
C     1.6724389967     1.3972526383     1.7246119001
C     1.7150435253     1.6313250799     -1.7783404645
C     2.4985966603     1.2763351049     -0.5927482104
C     -0.4915005364     0.8684623238     -2.4981250121
C     0.9067959203     0.5718971134     -2.3619274067
C     -2.4985109118     -0.1616655666     -1.4596431407
C     -1.3806701525     -0.2364060355     -2.4035529303
C     -2.7323153689     -1.4974632504     -0.9974047569
C     -2.5794189669     -0.6338456817     1.2516531543
C     -2.8452708904     -1.7432063521     0.3723228844
C     -0.5147357246     -0.2529014598     2.5366378224
C     -1.613385281     -1.0970115374     2.2181154847
C     1.8383863039     -0.0351743143     1.8410958774
C     0.8217251017     -0.8592576705     2.4869606561
C     2.7686281774     -0.0446572225     -0.4038850417
C     2.6795095053     -0.6734421935     0.9001248814
C     1.3423811529     -0.8168141996     -2.2613372337
C     2.4108070969     -1.0791497208     -1.3681901822
C     -0.9802071047     -1.5882443572     -2.5450506277
C     -1.9266286122     -2.4115710297     -1.8012418029
C     0.4197921309     -1.9281399353     -2.5149897704
C     -1.576819404     -3.6524268643     -1.3110372604
C     -2.2728825226     -2.9546059562     0.9468263755
C     -1.4851743845     -2.5300924656     2.0931676042
C     -1.8073051735     -3.9795065797     0.1103155014
C     0.9378177092     -2.2602672487     2.4194065522
C     -0.2393114965     -3.1344193219     2.3366734415
C     2.6781283027     -2.0826652724     0.7076532825
C     2.5934516706     -2.3536027302     -0.7390467554
C     1.9675006222     -2.9010831968     1.597597411
C     0.7708136035     -3.2450223978     -2.095757174
C     -0.2591791894     -4.1653155818     -1.6435424727
C     1.8964936321     -3.46985202     -1.1944955579
C     -0.6736093203     -4.7638710398     0.5330049285
C     0.106252562     -4.3229562236     1.622951132
C     1.4822638713     -4.1579947277     1.1283907828
C     0.2154290396     -4.9927168218     -0.6054528171
C     1.5187521051     -4.5047032233     -0.2429602388


