60

 C     -3.6374283518     -0.2646857818     1.9165606237
C     -3.9285402375     -1.0062609616     0.8024661128
C     -4.1017999089     -0.0882805639     -0.3386155881
C     -3.6018925935     1.1659848831     1.5390967838
C     -3.8408438336     1.2513463525     0.1168998675
C     -2.4292679181     1.680745034     2.0821233429
C     -2.4783363416     -0.571261394     2.7292715448
C     -1.7669870996     0.6412789237     2.9193162457
C     -1.7638011944     -1.7721923843     2.4800167239
C     -3.0662405078     -2.0955405115     0.390159594
C     -2.0387034044     -2.5115018569     1.2622420199
C     -3.3944869686     -0.6257619742     -1.4173588011
C     -2.7554636815     -1.8872205316     -0.9846698521
C     -2.6949329943     0.2365803461     -2.3340601139
C     -3.0144582713     2.0727747664     -0.670072103
C     -2.5402993002     1.6074689605     -1.963319595
C     -1.5974698597     2.5857236736     1.3122804635
C     -1.9300847013     2.7996142112     -0.061807589
C     -0.2450753198     2.6870003563     1.6838931281
C     -0.3598528311     0.6451093681     3.1177253112
C     0.3533876158     1.8004680573     2.6858932735
C     -0.3533876158     -1.8004680573     2.6858932735
C     0.3598528311     -0.6451093681     3.1177253112
C     -0.7870646857     -2.9989703475     0.736111674
C     0.2450753198     -2.6870003563     1.6838931281
C     -1.5102092827     -2.3430138645     -1.5510433587
C     -0.5082777979     -2.9751182182     -0.6614073008
C     -1.667323402     -0.377798975     -3.118334837
C     -1.0717402142     -1.6851421748     -2.7163557127
C     -0.6193748456     0.3955133938     -3.6058325544
C     -1.280838561     2.280024886     -2.2347960502
C     -0.8661057029     2.9487734617     -1.0412612485
C     -0.3308807993     1.681767493     -3.0751221049
C     0.7870646857     2.9989703475     0.736111674
C     0.5082777979     2.9751182182     -0.6614073008
C     1.7638011944     1.7721923843     2.4800167239
C     2.0387034044     2.5115018569     1.2622420199
C     1.7669870996     -0.6412789237     2.9193162457
C     2.4783363416     0.571261394     2.7292715448
C     1.5974698597     -2.5857236736     1.3122804635
C     2.4292679181     -1.680745034     2.0821233429
C     0.8661057029     -2.9487734617     -1.0412612485
C     1.9300847013     -2.7996142112     -0.061807589
C     0.3308807993     -1.681767493     -3.0751221049
C     0.6193748456     -0.3955133938     -3.6058325544
C     1.280838561     -2.280024886     -2.2347960502
C     1.0717402142     1.6851421748     -2.7163557127
C     1.5102092827     2.3430138645     -1.5510433587
C     1.667323402     0.377798975     -3.118334837
C     3.0662405078     2.0955405115     0.390159594
C     2.7554636815     1.8872205316     -0.9846698521
C     3.6374283518     0.2646857818     1.9165606237
C     3.6018925935     -1.1659848831     1.5390967838
C     3.9285402375     1.0062609616     0.8024661128
C     3.0144582713     -2.0727747664     -0.670072103
C     2.5402993002     -1.6074689605     -1.963319595
C     2.6949329943     -0.2365803461     -2.3340601139
C     3.3944869686     0.6257619742     -1.4173588011
C     3.8408438336     -1.2513463525     0.1168998675
C     4.1017999089     0.0882805639     -0.3386155881


