60

 C     -1.089525821     -4.5768352983     -0.2788369705
C     0.1005785843     -4.3093542651     -1.0794069744
C     1.1707708126     -4.1997526596     -0.2038530853
C     -0.7383311377     -4.2363387131     1.1238573396
C     0.6336389615     -4.1106875355     1.2057896782
C     -1.5462236355     -3.1351340714     1.5767677416
C     -2.0517848375     -3.6738409047     -0.6649973903
C     -2.514400211     -2.9413300221     0.5093463598
C     -0.1636815715     -3.174709907     -1.9648817197
C     -1.5404584447     -2.8338981478     -1.7697660486
C     0.807731399     -2.1293676295     -2.1643622508
C     2.1531882174     -3.2178190042     -0.3671809036
C     2.0879114305     -2.2789345803     -1.4612204056
C     1.2423671683     -2.9795587447     1.7964219066
C     2.3909983628     -2.6647905671     0.9650862294
C     -0.9656684998     -1.9622095488     2.1908398124
C     0.4826140981     -1.8689715606     2.3254967221
C     -1.7226559225     -0.7089137785     2.1238788583
C     -3.0534411458     -1.7124561854     0.3038856825
C     -2.8625451268     -0.6722169184     1.2705462416
C     -2.000103765     -1.512988843     -1.9322683449
C     -3.0295510574     -1.0744017741     -1.0222523159
C     0.3472171023     -0.7809932702     -2.5044673722
C     -1.0844514123     -0.4982988006     -2.4589897931
C     1.2766045403     0.3637755107     -2.4325153924
C     2.9129788469     -1.1393230558     -1.3252260332
C     2.5689371559     0.1264025482     -1.8933719728
C     3.0458558229     -1.4812842541     1.1152701802
C     3.5736403485     -0.8787572726     -0.0615036258
C     1.1400500598     -0.5406824373     2.4000731585
C     2.4808252416     -0.4207416084     1.9412241562
C     -1.0943053161     0.5767611642     2.4390637702
C     0.3486761914     0.6971702841     2.5146475813
C     -1.8603197784     1.7651828782     2.1508473603
C     -3.2874362658     0.5409276716     0.6239779249
C     -3.2768696962     0.2901912716     -0.825147877
C     -2.9058871929     1.7448871285     1.1163804309
C     -1.5260614049     0.8541072671     -2.4158208432
C     -2.6649152445     1.2516941278     -1.6392485697
C     0.7757898088     1.7559565064     -2.4213713094
C     -0.6188692353     1.9846517226     -2.4512799283
C     1.5562672203     2.8016301573     -1.7777600187
C     3.1976528709     1.1529640285     -1.0376745046
C     3.6532741665     0.5086328424     0.1532163277
C     2.9707377818     0.8153773901     1.3843911865
C     2.6593343012     2.3926552242     -0.9118395177
C     0.9814322086     2.0058510055     2.2366705173
C     2.2577470947     2.0277095722     1.5133721493
C     2.4156959119     2.9523364308     0.4175276457
C     -1.2484930459     3.0118764815     2.0706464313
C     0.1563932333     3.1723379218     2.0990513825
C     -2.6869249173     2.8768379031     0.2152888942
C     -2.4541496946     2.5997032682     -1.1505565689
C     -1.2481140723     3.1137244504     -1.775539428
C     -1.809206686     3.7631833403     0.9088041538
C     0.9509347096     3.9088148041     -1.1762418368
C     1.4900261291     3.9933326417     0.2192960083
C     0.4464272348     4.1832841257     1.0891727355
C     -0.4570116308     4.0756747418     -1.1093081687
C     -0.7749098462     4.4069570473     0.2760504034


