60

 C     0.414295415     -4.3148668183     0.7368963872
C     -0.9538215861     -3.9699764749     0.716684457
C     -1.3452018042     -3.5549876889     -0.5961133666
C     0.954115394     -3.9266429871     -0.5456502191
C     -0.0913259645     -3.4138870651     -1.3554570893
C     2.0588935255     -3.041716743     -0.3395009818
C     1.0148599564     -3.3976958449     1.6604660959
C     2.1344732032     -2.7522948624     1.0788233645
C     -1.2427209827     -3.0439095269     1.8031246136
C     0.0394010683     -2.5776987788     2.3341986641
C     -2.266361297     -2.1486249516     1.6435867907
C     -2.4135675213     -2.639138011     -0.77308067
C     -3.0179892428     -2.0531429241     0.3953955814
C     -2.349834663     -1.8110959073     -1.9466313004
C     0.1130127518     -2.2461607014     -2.1966441346
C     -1.0297485388     -1.5435377106     -2.5669727367
C     2.4018581194     -2.0107324225     -1.2666579327
C     1.3930117762     -1.5148104136     -2.1767497075
C     3.4062874697     -1.1418481072     -0.7852929973
C     2.5303528935     -1.4667702325     1.5261404328
C     3.5104320174     -0.8799311467     0.6814869065
C     0.2846434466     -1.1924768445     2.5738606149
C     1.6136306932     -0.6354590946     2.2925234478
C     -2.1406861062     -0.8214470997     2.2024293655
C     -0.8822565555     -0.290427349     2.6154699872
C     -3.5863246896     -0.738602014     0.3503649956
C     -3.1254652245     -0.0113929809     1.5296442632
C     -3.07772982     -0.6318469357     -2.0117420574
C     -3.7006048788     -0.0366053913     -0.8708568426
C     -0.9865489263     -0.1247445986     -2.915359797
C     -2.2588764502     0.4040301769     -2.6455394752
C     1.4274785089     -0.0917300356     -2.5114777384
C     0.1779399459     0.6534982066     -2.7002916834
C     3.6662525686     0.0666103577     -1.4461537718
C     2.5829129589     0.6580604426     -2.166294146
C     3.8575350136     0.4523372804     0.8531087256
C     4.1332151641     1.0290316887     -0.4608533969
C     1.8081094965     0.8098578903     2.2441523879
C     2.9787787953     1.3219356486     1.5950802639
C     -0.7060477105     1.1593942806     2.5804973321
C     0.6399396442     1.7183257405     2.4015311734
C     -2.9839823085     1.3525839903     1.523677146
C     -1.8487663698     1.9581027787     2.1998780099
C     -3.4117661142     1.3828688346     -0.9135495989
C     -2.4408883758     1.6301483795     -1.9965974138
C     -3.2378032157     2.089991812     0.2786663602
C     0.0159813446     2.0271568463     -2.2099375926
C     -1.3109772192     2.5036934273     -1.8279403663
C     2.4432108595     2.0423308966     -1.6883916653
C     3.3962706956     2.1819733541     -0.5769619878
C     2.8631958381     2.5094482078     0.7463557299
C     1.2009856259     2.6700596204     -1.6134404307
C     0.7440456939     3.0213680762     1.8221669849
C     1.7375801926     3.2485514849     0.7859665357
C     1.0051765487     3.5656687831     -0.4660929759
C     -1.6580864264     3.2256079979     1.5811634728
C     -2.3775386339     3.2042525404     0.2790322297
C     -1.4400870163     3.4684612553     -0.7497727357
C     -0.4059853398     3.7245666784     1.377354858
C     -0.2568833436     3.9442850858     -0.0897225663


