60

 C     -0.2299183177     -4.5347731611     -0.4363239358
C     -1.3749167772     -3.8853679808     -0.9185662066
C     -0.9946299743     -2.8994718025     -1.9159743919
C     0.8860512088     -3.9854736135     -1.1088274369
C     0.4441011254     -2.9572034211     -2.0283657431
C     1.8608103103     -3.5813373422     -0.1390089365
C     -0.0972382286     -4.0376619724     0.9502040889
C     1.1781559458     -3.4756882426     1.1705819862
C     -2.1534380082     -3.3928792448     0.1952710941
C     -1.2636009631     -3.3472777455     1.3648466771
C     -3.0250510349     -2.3661158505     -0.0450557034
C     -1.6973774514     -1.6648274537     -2.0262449538
C     -2.8903939742     -1.5262341981     -1.2406512857
C     -0.9525919024     -0.4485586064     -2.4042530507
C     1.2075335026     -1.7559271655     -2.2092476595
C     0.4995221896     -0.4884888962     -2.4608144327
C     2.7746224045     -2.6230171863     -0.5025090593
C     2.5092382103     -1.7194160043     -1.6126551992
C     3.3252009891     -1.8358369641     0.5483194684
C     1.3309970811     -2.2683029608     1.9424411529
C     2.5489244655     -1.5612053382     1.7282236831
C     -1.160312458     -2.1202679129     2.1175286706
C     0.1428073594     -1.5136720986     2.3792691575
C     -3.2988769101     -1.4817887771     1.0374915054
C     -2.2992573376     -1.261644516     2.0527373183
C     -3.3693204072     -0.2325788812     -0.8724588153
C     -3.7343276002     -0.2431206521     0.5284132952
C     -1.6373630048     0.8402387683     -2.2861952828
C     -2.8422557801     0.9524682499     -1.4546210325
C     -0.8729855413     2.0217150236     -2.488754085
C     1.2640312909     0.7651699398     -2.342809284
C     0.5727309078     1.9791228302     -2.4461984086
C     3.1407134937     -0.4702157927     -1.2623778803
C     3.7750868147     -0.6060422151     0.0166169192
C     2.5763184195     0.7821060795     -1.6519514553
C     2.6656385017     -0.1548676013     2.0043325665
C     3.5644994567     0.4077462021     0.9931741362
C     0.240427672     -0.0621229678     2.5762639628
C     1.5408662961     0.5994679922     2.4455898632
C     -2.1958349135     0.1545638141     2.2473075238
C     -3.2064504044     0.7801373954     1.3623982433
C     -0.9608291369     0.7872081402     2.4787457157
C     -3.0199947315     2.1426931841     -0.6688115553
C     -2.988834847     1.9986861479     0.8029329954
C     -1.2748444299     3.270421682     -1.9090064859
C     -2.2764764007     3.292085871     -0.9452490962
C     1.0404659531     3.1993212602     -1.762816294
C     -0.0889624129     3.9384885367     -1.3710711002
C     2.9309946431     1.9093062688     -0.8578544885
C     3.3627090541     1.6854114246     0.5394846023
C     2.1321611783     3.1061004314     -0.8720805034
C     1.5977544732     2.0237912294     2.1979741064
C     2.5767732331     2.5505522256     1.337374615
C     1.9446938451     3.5378828207     0.4822526023
C     -0.8668428135     2.2373698313     2.1137586432
C     -1.9309494377     2.8474236291     1.3047705565
C     -1.6550982847     3.8027768654     0.3118108223
C     -0.3294455119     4.2030128896     0.0291325196
C     0.3868989198     2.8365576387     2.0057784007
C     0.6676902504     3.8495601937     0.9757269703


