60

 C     -0.3737120275     4.4663041667     0.7860900126
C     0.9969362916     4.3226784973     0.6895069315
C     1.4663959993     3.3679510723     1.7490492073
C     -0.7923525607     3.6967458372     1.9718329069
C     0.3348520283     2.8766835895     2.4088210975
C     -1.9743893238     3.0796254604     1.6659689865
C     -1.2261012058     4.0688616358     -0.3284799177
C     -2.3269425686     3.3805662263     0.2676752113
C     -0.6241149785     3.4989690605     -1.5323032998
C     1.6053838333     3.9287298624     -0.5134926325
C     0.8197228162     3.4650485835     -1.6182308449
C     2.3973071626     2.4797371652     1.1467409442
C     2.590761071     2.902500356     -0.2071625454
C     2.3727074031     1.0885607166     1.4606500569
C     0.1749063804     1.4397701858     2.6052743717
C     1.3046824301     0.5790097198     2.3164157764
C     -2.1813500485     1.6788604099     1.8902869281
C     -1.1455278199     0.8514066167     2.4580546133
C     -2.8787026224     2.2109683958     -0.2729652037
C     -2.926513471     1.1775152572     0.7789686739
C     -1.3121056178     2.3917454886     -2.1474376661
C     -2.4659079081     1.7920903009     -1.5436899307
C     -0.6176040223     1.3036258121     -2.819915239
C     1.4901430594     2.2756680988     -2.1239498286
C     2.5855234782     1.9427435817     -1.2331136578
C     0.8025833764     1.2082761785     -2.7752022099
C     2.9371238037     0.1897379944     0.4798712424
C     2.9132373667     0.591949221     -0.9398299662
C     2.926513471     -1.1775152572     0.7789686739
C     1.1455278199     -0.8514066167     2.4580546133
C     2.1813500485     -1.6788604099     1.8902869281
C     -1.3046824301     -0.5790097198     2.3164157764
C     -0.1749063804     -1.4397701858     2.6052743717
C     -2.9371238037     -0.1897379944     0.4798712424
C     -2.3727074031     -1.0885607166     1.4606500569
C     -2.5010358245     0.3840158197     -1.8720834897
C     -1.400282     0.0943070306     -2.7473504285
C     -2.9132373667     -0.591949221     -0.9398299662
C     -0.8025833764     -1.2082761785     -2.7752022099
C     1.400282     -0.0943070306     -2.7473504285
C     2.5010358245     -0.3840158197     -1.8720834897
C     0.6176040223     -1.3036258121     -2.819915239
C     2.8787026224     -2.2109683958     -0.2729652037
C     2.4659079081     -1.7920903009     -1.5436899307
C     1.3121056178     -2.3917454886     -2.1474376661
C     1.9743893238     -3.0796254604     1.6659689865
C     2.3269425686     -3.3805662263     0.2676752113
C     -0.3348520283     -2.8766835895     2.4088210975
C     0.7923525607     -3.6967458372     1.9718329069
C     -2.3973071626     -2.4797371652     1.1467409442
C     -1.4663959993     -3.3679510723     1.7490492073
C     -2.5855234782     -1.9427435817     -1.2331136578
C     -1.4901430594     -2.2756680988     -2.1239498286
C     -2.590761071     -2.902500356     -0.2071625454
C     0.6241149785     -3.4989690605     -1.5323032998
C     1.2261012058     -4.0688616358     -0.3284799177
C     0.3737120275     -4.4663041667     0.7860900126
C     -0.9969362916     -4.3226784973     0.6895069315
C     -0.8197228162     -3.4650485835     -1.6182308449
C     -1.6053838333     -3.9287298624     -0.5134926325


