60

 C     4.0862224632     1.7012151075     0.6893777604
C     4.006096666     1.2157370981     -0.6898847128
C     3.9785787038     -0.1929625845     -0.7165451949
C     3.8685146156     0.5614900311     1.5195378611
C     3.9810246503     -0.6092556803     0.7195790401
C     2.6498745231     0.7361934952     2.2953955553
C     2.9867175918     2.5509473296     0.8605665003
C     2.1301060675     2.0192828244     1.913738961
C     2.9926867139     1.9672531083     -1.3884291956
C     2.3609439707     2.8505935097     -0.4094071057
C     2.1755563625     1.3115038896     -2.311892946
C     3.0913775044     -0.8827490971     -1.6328343825
C     2.2288147761     -0.1154361812     -2.461180178
C     2.5830561671     -2.1707822422     -1.2430538178
C     3.2606688406     -1.7239545774     1.102118312
C     2.8246403061     -2.6526543325     0.0860974717
C     1.7474843835     -0.3591415996     2.5197691875
C     2.1863069301     -1.6401214958     2.0680364837
C     0.3103891988     -0.094982533     2.6228284631
C     0.7607904629     2.2800274967     1.8961067265
C     -0.1372686264     1.2685611167     2.4697717332
C     0.9924603443     3.1339892191     -0.4497786004
C     0.2495213927     3.1387576076     0.8225607022
C     0.8039267739     1.7249982884     -2.4679452896
C     0.2409095913     2.7058708274     -1.6350989005
C     0.8703017348     -0.5650544953     -2.7841848102
C     0.0145083251     0.5646787952     -2.8463509358
C     1.2838337203     -2.6616951896     -1.6661628211
C     0.3591956396     -1.83295196     -2.3737244036
C     1.6941481982     -3.352149725     0.5427689554
C     1.2188878149     -2.6416326803     1.7012657883
C     0.7961212193     -3.4873163137     -0.5747589113
C     -0.6702221343     -1.1925591477     2.4161661108
C     -0.177904527     -2.4541612019     1.911695682
C     -2.1044755523     -0.8863310085     2.2462452441
C     -1.535039932     1.5385650264     2.378013757
C     -2.5217080824     0.46685826     2.2445756738
C     -1.1323396484     3.3362994049     0.7634275265
C     -1.9916921488     2.6691798581     1.6900256153
C     -1.1901671812     2.750999691     -1.6038908338
C     -1.8310198058     3.3066024131     -0.5019879597
C     -1.3982727872     0.4767229328     -2.6094607749
C     -2.020127849     1.6590920156     -2.1436409657
C     -1.0959644139     -1.9930513987     -2.174037143
C     -2.000500943     -0.8350012281     -2.3335699514
C     -0.5342474261     -3.5589806827     -0.3291735718
C     -1.0382316102     -3.2463745244     1.0353707487
C     -1.5005239697     -3.0272312496     -1.2723490245
C     -2.9649403092     -1.8033669383     1.5175576744
C     -2.3708168172     -2.9500647963     0.9038318298
C     -2.7130496086     -2.9269802468     -0.5469125049
C     -3.2654700737     -0.8313538672     -1.6518441731
C     -3.8992886095     -1.2832025713     0.5662195536
C     -3.5794594821     -1.8902945549     -0.7448035763
C     -3.5895162691     0.9492925902     1.387223112
C     -3.2446036626     2.2778811831     1.0127555002
C     -3.1106710804     2.6167494413     -0.3223292778
C     -3.2331726788     1.61309214     -1.3581061021
C     -4.0922012305     0.0836323511     0.3809546822
C     -3.7907692928     0.385726952     -1.0402444472


