60

 C     -0.8095203461     4.0645085045     1.6715209869
C     0.0811234447     4.2803408988     0.5947273132
C     -0.5769663097     3.995374095     -0.6706995902
C     -1.9525770485     3.4117538774     1.1145171766
C     -1.8409632792     3.3489051413     -0.3312076898
C     -2.1850619926     2.1978843866     1.8164650244
C     -0.171796224     3.0879317105     2.5235267986
C     -1.0407569415     1.9782382846     2.6977693264
C     1.3680854586     3.6713098325     0.8817322106
C     1.1532847461     2.8147475529     2.0634055593
C     2.1211826645     3.2224093726     -0.2001328748
C     0.2154532446     3.501077405     -1.7110359462
C     1.6141035739     3.3301597466     -1.5298803454
C     -0.2745592482     2.362686163     -2.4995453912
C     -2.2960181717     2.1996431537     -1.0312599478
C     -1.5291672913     1.7841829039     -2.2245026124
C     -2.8011565953     1.1035561758     1.1687785381
C     -2.9964142174     1.1457750293     -0.2784409035
C     -2.6000375119     -0.1532749948     1.8012245189
C     -0.5237054273     0.6683831818     2.8860590244
C     -1.4490912905     -0.3769150879     2.6368913363
C     1.6851237767     1.4933942774     2.1202820024
C     0.8932331844     0.3979827808     2.6898424559
C     2.79558778     1.9264662717     -0.0880010551
C     2.6614499535     1.1428669561     1.0920322681
C     1.9650814339     2.0883609057     -2.1937260426
C     0.8506105655     1.501830419     -2.829003977
C     2.7792871937     1.2754539943     -1.3809481472
C     0.740159008     0.0671737729     -2.9222623927
C     -1.6946641604     0.4572524385     -2.7325155813
C     -0.565185301     -0.4092737656     -3.0773116152
C     -3.2365776314     -0.0991152909     -0.9195875792
C     -2.6973496384     -0.3632295727     -2.2085354815
C     -2.8816133596     -1.395320278     1.1380577462
C     -3.2247656353     -1.3766080033     -0.2030236133
C     -1.0359834762     -1.7505002287     2.5170956483
C     -1.9886093954     -2.4206372687     1.6681203335
C     1.3255011628     -0.9866809904     2.5398151155
C     0.3490204889     -2.1031411575     2.551960327
C     3.0374644854     -0.2048416296     0.9612668996
C     2.5584669398     -1.2175245232     1.8409449427
C     2.7622328508     -0.1440292582     -1.5085148597
C     1.7585250839     -0.8166611881     -2.3153653509
C     3.2771228891     -0.8109161416     -0.3658311959
C     1.4360884016     -2.2196540034     -2.0319892196
C     -0.9172106382     -1.7741100243     -2.7487322951
C     -2.2575722551     -1.7426424558     -2.2763636966
C     -2.6369608468     -2.4012820395     -1.0926397564
C     0.0310413915     -2.6806601288     -2.1919518492
C     -1.5618331572     -3.4704717185     0.8528058769
C     -1.7843665376     -3.3841672981     -0.5993647357
C     -0.5112145602     -3.6376983475     -1.2547669628
C     0.6768614001     -3.3633328366     1.9084172727
C     -0.2740146041     -3.9909748939     1.074780355
C     0.3482067541     -4.2051869819     -0.2606308062
C     2.8115811211     -2.4731760987     1.1764198038
C     3.1286437496     -2.1737138552     -0.2415900246
C     2.2585257749     -2.926309748     -1.0805918126
C     1.9494958392     -3.5176646286     1.2106752077
C     1.6831686311     -3.9299348941     -0.1991808176


