60

 C     1.1546616265     4.1050738887     -0.987561034
C     2.1279933517     3.5710210422     -0.1446149878
C     1.5824780045     3.5465293479     1.2213777485
C     -0.0722281484     4.3230792736     -0.1808748148
C     0.1850001479     3.8766072502     1.1581304406
C     -1.1584929933     3.7873334637     -0.9058395494
C     0.8033391711     3.3977229585     -2.151374818
C     -0.6575340114     3.2647271732     -2.1634087711
C     1.3754280659     2.1365221881     -2.4447423505
C     2.7465931673     2.3142340045     -0.4093077351
C     2.3775242999     1.5643669482     -1.5771863564
C     2.0185672869     2.3727534925     1.8370419645
C     2.8175946255     1.6040832764     0.8629069171
C     1.1425640354     1.6676064651     2.6777700101
C     -0.7720777354     3.0173358451     1.8415555521
C     -0.2520816497     1.9795887474     2.6831056197
C     -2.1380523381     3.0189152865     -0.2331203901
C     -1.9919888247     2.6956888174     1.1591507087
C     -2.7204266812     1.8614164505     -0.8737768373
C     -0.9894330849     1.9779872187     -2.5799426042
C     0.2733303791     1.2700492591     -2.8480437374
C     -2.0731161727     1.2512824899     -1.982053464
C     0.3710268866     -0.1083434118     -2.8196731528
C     2.5037331657     0.1232734173     -1.5376349234
C     1.6588848744     -0.6845043899     -2.413505531
C     2.896378535     0.2222454191     0.923592336
C     3.0321367501     -0.5143575616     -0.3432845652
C     1.2886686174     0.2481239315     2.8224463983
C     2.2156974381     -0.4666394434     2.0500076811
C     -0.9716319792     0.729347325     2.9408135848
C     -0.0306796354     -0.3205646752     3.0857988957
C     -2.7220122911     1.4541061127     1.4213762531
C     -3.2635757053     1.0201196683     0.1647658134
C     -2.2460523013     0.4736911635     2.3428726974
C     -3.4979974402     -0.3248997073     -0.0867167721
C     -2.0710718642     -0.2130850289     -2.114263065
C     -0.8769800749     -0.8915234276     -2.6468542834
C     -2.9282067148     -0.9578266927     -1.2767144761
C     -0.7566976847     -2.2851516621     -2.4745320688
C     1.743509304     -2.0869653441     -2.31792266
C     0.5354816058     -2.8816463243     -2.4154473611
C     3.0536591404     -1.9291739787     -0.2692030754
C     2.5462652399     -2.7032813421     -1.3291260897
C     2.0305895346     -1.8882330103     1.9663396134
C     2.6476533893     -2.6113760473     0.9606504567
C     -0.3306852661     -1.6931207736     2.7485132608
C     0.7389193915     -2.5213824305     2.2892078253
C     -2.5988597945     -0.9044685221     2.1200798255
C     -3.3409517101     -1.2483636158     0.9746172277
C     -1.6361144917     -1.9882868492     2.3093721881
C     -2.6535443499     -2.3614116091     -0.9443541804
C     -1.5926235027     -3.0214350797     -1.5350391367
C     -2.867358858     -2.5212416448     0.4497839469
C     -1.834143469     -3.0090148434     1.2706838125
C     0.5380292097     -3.9440502244     -1.4552517681
C     1.758556288     -3.8424562943     -0.7599086556
C     1.7844742894     -3.7365801198     0.6201375879
C     0.5451142265     -3.5964908746     1.365227892
C     -0.7183924498     -3.8777989475     -0.744390603
C     -0.7308406254     -3.7411580487     0.6983435597


