60

 C     1.2985664071     3.9774752458     -1.0457056025
C     0.0227656469     4.2178323044     -0.5272607904
C     -0.9392262715     3.5905591429     -1.4175988567
C     1.1504226782     3.0583258381     -2.2130950671
C     -0.220285642     2.7554931488     -2.3546896814
C     2.1062712986     2.0262728279     -2.0976359667
C     2.2923596294     3.4647396431     -0.2299663678
C     2.9087833596     2.329075368     -0.9369519782
C     2.000155842     3.029427334     1.1073866208
C     -0.3116664061     3.8270810921     0.8140871238
C     0.6586110455     3.1441910526     1.6379412706
C     -1.9889107066     3.0540856786     -0.6577134657
C     -1.6664674946     3.3145088459     0.7540401878
C     -2.6121807461     1.8334123341     -1.0638725267
C     -0.6453115984     1.4030335424     -2.5981097634
C     -1.9726202564     1.0268356383     -2.1109723457
C     1.748612393     0.6704565947     -2.3574082144
C     0.3739459887     0.3702886974     -2.7500677236
C     2.512153954     -0.3544514045     -1.6597940866
C     3.2337441754     1.3365469961     -0.0257891376
C     2.7315938618     1.7934590802     1.28509025
C     3.1604581677     -0.0404354638     -0.3989426261
C     2.3169732926     0.8265156644     2.1727125389
C     0.1756084029     2.039822507     2.5123388177
C     1.0323897752     0.9364981793     2.803026961
C     -2.1310486583     2.4216248204     1.7029353074
C     -1.2076481341     1.7346724202     2.5912959398
C     -3.3435245688     1.1402728637     -0.0340660087
C     -3.1005507187     1.4682731212     1.3021390419
C     -3.5405101583     -0.3054573137     -0.0700023728
C     -2.3496718678     -0.3353640591     -2.2122910514
C     -3.2139385244     -0.9871170833     -1.2048676138
C     -0.043292234     -1.0295225021     -2.8071939313
C     -1.4392309657     -1.3344764157     -2.6497214546
C     2.1480041396     -1.7140375529     -1.8910722172
C     0.8836932002     -2.0552169602     -2.4970033915
C     2.5224623503     -2.7347913315     -0.9851260847
C     3.1074492276     -1.0276520041     0.6808162887
C     2.6060261396     -0.5729932763     1.9328491796
C     2.8635219972     -2.4035439979     0.3539372535
C     0.551438895     -0.416900406     3.0149466041
C     1.5784173482     -1.327823538     2.60212737
C     -1.6923383922     0.3616811541     2.7830399945
C     -2.8940450034     0.221600991     2.0508984007
C     -3.1727913325     -0.8777815433     1.2416755472
C     -0.8178254121     -0.7566261459     2.8691876664
C     -2.3777937301     -2.0785295731     1.3316096214
C     -1.1925785365     -2.0419731719     2.2141775676
C     -2.8299934955     -2.3589845517     -1.0886902211
C     -1.8280942542     -2.5966525374     -2.0422865825
C     -2.3577375224     -2.9071624765     0.1723724569
C     0.459339086     -3.3428053666     -1.8932727919
C     1.4774545244     -3.7522677941     -0.9828742696
C     -0.8729547903     -3.5278363299     -1.5313214154
C     -1.2223197079     -3.7499680707     -0.1227533125
C     2.0364087628     -3.2294611326     1.1940779474
C     1.2414947102     -2.6225677963     2.1824214056
C     -0.1697395119     -2.989104737     1.9763633636
C     1.1538549324     -4.0241164811     0.3501508401
C     -0.1986851915     -3.8784411092     0.8244714519


