60

 C     1.8336871421     -3.6001311893     0.8574934097
C     1.1007729783     -4.0167967879     -0.2339355952
C     -0.3149217234     -4.1111157494     0.1399025577
C     0.8705475353     -3.3028789218     1.9249775196
C     -0.4762390543     -3.5643606407     1.4433339639
C     1.193101851     -2.0611819602     2.4452574228
C     2.7474831762     -2.4945524698     0.7395153053
C     2.4323937846     -1.5654630149     1.7925469206
C     3.0098038931     -1.9574847482     -0.5338463785
C     1.1786489644     -3.3154318613     -1.4964392458
C     2.1627467634     -2.3434733406     -1.6598498496
C     -1.087987079     -3.6387161674     -0.9400753132
C     -0.168562262     -3.0336702115     -1.9285863091
C     -2.2948416837     -3.0091893874     -0.6516015075
C     -1.5296823792     -2.6150997956     1.6952571604
C     -2.5391907849     -2.5049145496     0.6897151477
C     0.1627312366     -1.1307219686     2.8372050348
C     -1.2250353381     -1.4139761137     2.5008677598
C     0.5940958844     0.2129453143     2.9856142573
C     2.7009027801     -0.1878461944     1.680093962
C     1.8424536602     0.6834114197     2.4301855653
C     3.3273998964     -0.5604385736     -0.6700865457
C     3.2935726917     0.3326636045     0.4437435275
C     1.8699564517     -1.133563242     -2.4005859827
C     2.7839937467     -0.1187255596     -1.9366774798
C     -0.4979187717     -1.7821289246     -2.5456774701
C     0.5517645299     -0.7779468513     -2.7769282802
C     -2.7579874462     -2.009164977     -1.5616262536
C     -1.8499710607     -1.3332977146     -2.3943401211
C     -3.3259537496     -1.2798173667     0.5459035551
C     -3.4835564719     -1.0050476425     -0.829859503
C     -2.1121465647     -0.2917995185     2.4252270101
C     -3.1221638809     -0.2021677569     1.4186835373
C     -0.3333535986     1.3108500295     2.9674883747
C     -1.6649769118     1.0634302929     2.6815645311
C     1.7088855701     2.0849381875     2.1157389065
C     0.3438190952     2.4975407344     2.4522946146
C     3.148818611     1.7314544821     0.1541709306
C     2.3590535444     2.6263422417     1.0138674949
C     2.5146552682     1.2120100905     -2.1620412123
C     2.901329683     2.151310879     -1.1643631344
C     0.2006151784     0.6674030721     -2.8619395182
C     1.2164191916     1.6220721758     -2.6731801281
C     -2.1731451636     0.1146258331     -2.3413484673
C     -3.19241822     0.2916584988     -1.3516725282
C     -1.1956974487     1.0981091217     -2.5890063845
C     -3.1899148641     1.1741251457     0.9336950151
C     -2.3813104557     1.9792662614     1.8057813911
C     -3.1699222489     1.4251358594     -0.4830309154
C     -0.3370874738     3.4156665175     1.6806492968
C     -1.7450513587     3.140006809     1.3334037988
C     1.6619894035     3.6053610097     0.1835340795
C     1.9623646773     3.2570348438     -1.1685373235
C     0.9391501526     2.9545892099     -2.1012109729
C     0.3336604222     3.9751122052     0.4933765115
C     -1.4509569359     2.3944923866     -2.0285474135
C     -2.4283609714     2.5468215823     -0.9550297553
C     -1.8909953558     3.4816052103     -0.0329753162
C     -0.378469094     3.3289638182     -1.7925217669
C     -0.6289994124     3.9821565629     -0.5455678904


