60

 C     0.256016355     4.401634755     0.4393769669
C     -1.0905760286     4.2897931395     0.1767293938
C     -1.26432997     3.7180958844     -1.2093732312
C     0.9625312367     4.0858844044     -0.8379046525
C     0.0069487369     3.4549195794     -1.7455548298
C     2.1307059837     3.4656005508     -0.5348031649
C     0.8657572859     3.589608141     1.4625708781
C     2.1384915602     3.2036952428     0.9241296405
C     0.0693153954     2.5915920675     2.1774173615
C     -1.929906487     3.5846915206     1.0369502751
C     -1.3470167439     2.6929428576     2.0144864857
C     -2.2693793305     2.7361935259     -1.1515205738
C     -2.7812176963     2.7610453575     0.2030397109
C     -2.0835899521     1.4666348639     -1.8021223056
C     0.3002079358     2.1503992917     -2.3108192863
C     -0.7947283981     1.1853319616     -2.4335550106
C     2.5439520944     2.2711827623     -1.2047832668
C     1.6627519818     1.6346819532     -2.1456563573
C     2.6720452312     1.9524202977     1.110831693
C     3.1251231343     1.4404864988     -0.1975689183
C     0.6586752868     1.2452082388     2.4390714737
C     2.0385068391     1.0099431871     2.0155166227
C     -0.1770855483     0.0697521464     2.6328832423
C     -2.1215914187     1.4709699884     1.9738637439
C     -3.0313279456     1.5517424841     0.8429215009
C     -1.6062932876     0.2172057889     2.3617494784
C     -2.9007661511     0.3613774347     -1.3198207886
C     -3.3383051298     0.4022079978     0.0816380665
C     -2.6785262075     -0.9252090586     -1.8736666213
C     -0.4743307079     -0.2182033332     -2.7313016264
C     -1.4510009066     -1.2228622043     -2.525200474
C     1.9066101619     0.2413671755     -2.3561795843
C     0.8850286711     -0.6494935105     -2.728655617
C     3.3630796214     0.0697424153     -0.3845358285
C     2.8910152273     -0.5125803025     -1.5858732484
C     2.5386420646     -0.2870126486     1.9616312532
C     3.3800424877     -0.7419569011     0.8108951652
C     0.3877201866     -1.2923952861     2.6106987013
C     1.7955214023     -1.4124386451     2.4244777238
C     -0.4371831116     -2.4557127765     2.2175255154
C     -2.3771027769     -0.9022314492     1.9313693067
C     -3.3211368877     -0.7872362475     0.8477191761
C     -1.8220583746     -2.2507488304     1.9208697946
C     -3.0701730111     -2.1214982342     -1.1603682789
C     -3.3371579652     -2.0476994728     0.1919269034
C     -2.4745644646     -2.9892154264     0.9068124561
C     -1.0644795083     -2.6165912656     -2.1591540763
C     -2.0708992662     -3.1654169432     -1.3710184193
C     -1.7271130925     -3.7225232679     -0.0624888349
C     1.2853821276     -2.0145003984     -2.3108791798
C     2.5545649934     -1.910273892     -1.6393827555
C     0.3220602124     -2.9720451975     -1.9404778311
C     3.2646915959     -2.1083131299     0.7095825434
C     2.3698809028     -2.5718683495     1.7875557224
C     2.8297317333     -2.7445272503     -0.5296467005
C     0.1700626926     -3.5471053506     1.4876458986
C     -0.4080178316     -4.0021716098     0.2350182462
C     0.6289705863     -3.8338573481     -0.8063173212
C     1.5776050561     -3.5644890053     1.2879613093
C     1.8682193195     -3.7261740773     -0.1662372664


