60

 C     -1.4298291337     -4.3042171415     0.8430934456
C     -0.8107926152     -4.4292126936     -0.4914347757
C     0.5734073249     -4.5771555618     -0.2914883287
C     -0.3498924826     -3.9623982205     1.7743187447
C     0.8632843513     -4.1974518813     1.1514668035
C     -0.6182270933     -2.6505633817     2.3351349798
C     -2.2967193234     -3.2420341777     0.8078405529
C     -1.9116650203     -2.2607501016     1.8256287135
C     -1.3135750437     -3.3927323352     -1.3470581005
C     -2.3620399249     -2.7287140784     -0.5675580154
C     -0.4139719151     -2.5426179885     -2.1015962373
C     1.4472127696     -3.852979326     -1.0745809648
C     0.9903171252     -2.8579776848     -2.0267760605
C     1.8917039995     -3.206987505     1.1461943774
C     2.4152463222     -3.1949734149     -0.2030086588
C     0.3920647948     -1.6486447293     2.4074745606
C     1.7117965576     -1.9416969291     1.8216134326
C     -0.0391976677     -0.2553935609     2.5041433725
C     -2.2524129918     -0.9366723098     1.6374851397
C     -1.4178392093     0.0960498659     2.2040504919
C     -2.7080982098     -1.423796246     -0.7763885391
C     -3.0060545072     -0.5970537489     0.4160892307
C     -0.7963392066     -1.1485728418     -2.3639771965
C     -2.1070584531     -0.7063647794     -1.916238725
C     0.1874640279     -0.1043612448     -2.5935052731
C     1.9098141581     -1.773062852     -1.9694045898
C     2.7825349028     -2.0046719704     -0.78479321
C     1.5736121323     -0.4544144181     -2.340244815
C     2.4996649699     -0.8151117488     1.3679115916
C     3.0754025596     -0.8981820538     0.0312296562
C     0.9686614737     0.7998932187     2.5122885998
C     2.2803272612     0.5128247229     1.9207839917
C     0.5022434733     2.1487163042     2.549476441
C     -1.8278608367     1.4768714739     1.991873875
C     -0.8600427555     2.4823674545     2.2062439924
C     -3.3815527656     0.7012261781     0.2154839982
C     -2.9025549431     1.7695288816     1.0746285
C     -2.494267985     0.6077186829     -2.1193646047
C     -3.4083398159     1.224780652     -1.1610055052
C     -0.1799515131     1.327766817     -2.5700733408
C     -1.5583988491     1.6392788866     -2.513002085
C     0.7744051454     2.3580265361     -2.112246306
C     2.4636074919     0.5626560622     -1.9050924211
C     3.295740247     0.2934808255     -0.7061515584
C     2.1236270419     1.9346393189     -1.8924988103
C     3.0211100151     1.600762258     1.3293999705
C     3.4966833035     1.4639398067     -0.0281709797
C     2.9120769037     2.5490172771     -0.8352444077
C     1.3242630657     3.2003374349     2.0141998875
C     2.5153888668     2.9299326435     1.3991588735
C     2.4048101668     3.4987088121     -0.0022121627
C     -0.8387006808     3.6578922328     1.3273108816
C     0.2825379387     3.4958811148     -1.3136249867
C     0.4876257467     4.0166047835     1.1159134397
C     1.076968189     3.9818737401     -0.1967278196
C     -2.8801715769     2.9539390899     0.2535743231
C     -3.2024294605     2.5822869643     -1.1285154631
C     -2.02694636     2.8789210735     -1.9284613111
C     -1.7163031552     3.7274279725     0.2256590127
C     -1.132368631     3.635413841     -1.1492256277


