60

 C     -0.48664984     4.5318724155     -0.0407574747
C     -1.3243640693     3.9465799533     0.8949633119
C     -0.5067509713     3.3105499987     1.9261526709
C     0.8806776758     4.2121156513     0.2971656486
C     0.8880059191     3.4839741857     1.5389739836
C     1.4961153072     3.631992036     -0.8409923982
C     -0.7772113401     3.9549641946     -1.3481585523
C     0.4417960447     3.4791021075     -1.8951185096
C     -2.2865837928     3.11920154     0.1720160298
C     -1.9013713932     3.0783304082     -1.2463386302
C     -2.7305085649     1.9663664336     0.7595696432
C     -0.93443012     2.0956199776     2.5122676627
C     -2.1497630187     1.475593968     2.0211990863
C     0.0596338868     1.1861754336     2.9853694433
C     1.819791296     2.4138687047     1.7345750944
C     1.4320052651     1.3486967982     2.6008887987
C     2.4310106685     2.6026022301     -0.6706475211
C     2.6724326394     2.0456009862     0.6268217762
C     2.5091160396     1.4969807052     -1.6192520916
C     0.4136283163     2.3088972548     -2.6496989045
C     1.5164294498     1.3525203457     -2.5799089779
C     -1.9237407451     1.8279761092     -1.9570393798
C     -0.7906372362     1.5351343793     -2.7707187897
C     -3.074063563     0.8128864739     -0.0393832175
C     -2.6411591155     0.6759100621     -1.3798489429
C     -2.3366603776     0.0802853056     2.0702928636
C     -3.0500869048     -0.3112582686     0.8563214755
C     -0.1935616714     -0.2280971924     3.1316750954
C     -1.3665157325     -0.8313817127     2.629489897
C     2.0420121836     0.0315890518     2.5414012331
C     1.0758648344     -0.9181563634     3.0125781528
C     3.1054491133     0.6734686132     0.4536725976
C     2.9902599168     0.3253636299     -0.927481656
C     2.8951884306     -0.3197139801     1.4534951361
C     2.6511883285     -1.008486306     -1.3548245096
C     1.0155453192     0.0435164205     -2.9120469316
C     -0.4024766746     0.1589652623     -3.0196841187
C     1.626421188     -1.1493220964     -2.4160120887
C     -2.4116130156     -0.6898211928     -1.8749922056
C     -1.2479507751     -0.9428774341     -2.7336739729
C     -2.9940876824     -1.5789037336     0.3662061773
C     -2.8407577612     -1.7771874551     -1.0601850231
C     -1.3163679128     -2.2353683405     2.1328563389
C     -2.2459557098     -2.6289251796     1.0785165888
C     1.1216673125     -2.2476580063     2.6059909828
C     -0.0967516904     -2.9469432769     2.1923894758
C     2.9060219247     -1.6868300224     1.0228786359
C     2.7860495293     -2.0380558797     -0.4061699515
C     2.1659925981     -2.6454067297     1.7287429795
C     0.2802395411     -3.9059271601     1.1317986679
C     2.0254768824     -3.2734738915     -0.5145274551
C     1.6297801354     -3.6357874454     0.7990586552
C     0.8405187955     -2.3132663486     -2.4766458218
C     -0.5956564705     -2.216161814     -2.708717217
C     1.0765589115     -3.4313711542     -1.5586260546
C     -2.2685889291     -3.0779026219     -1.1949560339
C     -1.9270438593     -3.6128826218     0.1440522072
C     -0.6173649051     -4.1955036974     0.0784001189
C     -1.1966811634     -3.316021029     -2.0292889692
C     -0.1595226478     -4.0440093823     -1.2740847295


