60

 C     -0.2481032278     4.5281333844     -0.1854795852
C     -1.4900430683     4.0109967212     0.1716629114
C     -1.3455157583     3.330158836     1.4440233846
C     0.7313139593     4.1685488783     0.7968051572
C     0.0649147131     3.4217474855     1.8304964401
C     1.8325357872     3.577771986     0.1105879386
C     0.1589510004     3.9700532083     -1.4749823417
C     1.4802541099     3.4746492869     -1.3391722732
C     -1.9597078626     3.2291716952     -0.9659461947
C     -0.8831669611     3.1375137902     -1.9701266273
C     -2.7186812711     2.1223436243     -0.7268032611
C     -2.0841897889     2.1425313114     1.7010766323
C     -2.9285975151     1.6261775156     0.644037823
C     -1.513190857     1.1545630385     2.5660903243
C     0.7089861795     2.2810425605     2.4074616023
C     -0.1059946967     1.2132674436     2.8930233549
C     2.5277337774     2.522757778     0.7065780796
C     2.0155919516     1.9060386301     1.8982699154
C     3.1064986409     1.4555229077     -0.0988255202
C     1.8090084169     2.3008743687     -2.0127414952
C     2.7478823731     1.3426610896     -1.435937889
C     -0.5759029043     1.8590966212     -2.5669245921
C     0.8032850045     1.5335728205     -2.6962216917
C     -2.6413868495     0.9604441237     -1.5855979053
C     -1.531284102     0.7416014275     -2.4377122847
C     -3.2671990445     0.2563597252     0.5641063177
C     -3.22459826     -0.1198209671     -0.8517931155
C     -1.8882780979     -0.2191721751     2.5104578086
C     -2.7977394923     -0.700899905     1.5375787494
C     0.374531953     -0.1324727076     3.0340298448
C     -0.7217646713     -1.026528585     2.856825747
C     2.4602545942     0.5346179152     1.9239163317
C     3.1594341143     0.2540962576     0.7018545786
C     1.6868761882     -0.4919237499     2.5574147111
C     3.1580912391     -1.0472729681     0.1259874524
C     2.4695607168     0.0379593304     -1.9797496751
C     1.2429814552     0.1492201312     -2.7120090559
C     2.8090882648     -1.1607516558     -1.2942493385
C     -1.1063081899     -0.6558190958     -2.6554276984
C     0.3379313575     -0.9409483209     -2.8034611436
C     -2.9836808461     -1.4165032248     -1.2325938345
C     -1.935643946     -1.7027883985     -2.1869546734
C     -2.681150198     -2.0783928679     1.1303191161
C     -2.924001826     -2.4220256074     -0.2056335144
C     -0.5487530855     -2.3687421229     2.3923191945
C     -1.5721292531     -2.9422046846     1.5895231889
C     1.9087519598     -1.8127837793     2.141380954
C     2.7419047854     -2.1024950789     0.9994063726
C     0.8209017628     -2.8181870134     2.1707037043
C     2.2880888694     -3.3412560686     0.4660930867
C     1.1047823772     -3.8056729948     1.2297141869
C     2.1266190048     -2.3283089292     -1.7484744387
C     0.8688633797     -2.2078910978     -2.4458604231
C     2.0040421528     -3.4617814589     -0.8806165994
C     -1.3836544281     -3.013193986     -1.8069110144
C     -2.0077755119     -3.4588297526     -0.6147261924
C     -1.2388471428     -3.8746035302     0.5196065584
C     0.103458398     -4.2444215139     0.301505622
C     -0.0107222211     -3.2960436878     -1.9890436041
C     0.6648923907     -4.0517578646     -1.0188809065


