60

 C     0.8681205212     -4.4266212175     0.8712683994
C     -0.5479536387     -4.212201644     0.8300623022
C     -0.9762134873     -4.112572446     -0.5125489482
C     1.344295044     -4.1025232646     -0.4829215202
C     0.2490138758     -3.9242529812     -1.332009261
C     2.2896953815     -3.0333759158     -0.4418122321
C     1.3689249125     -3.3607577223     1.6472211483
C     2.3899340045     -2.6367993814     0.9524738341
C     -0.9135632961     -3.1145483717     1.7327497794
C     0.3185630699     -2.548755948     2.2341877579
C     -1.9860156557     -2.265938393     1.4331622536
C     -1.8931864435     -3.1304425838     -0.8786163596
C     -2.6058798092     -2.3981623809     0.1128092509
C     0.0644395373     -2.7408890946     -2.1204071811
C     -1.2928969586     -2.3348020804     -1.9594160463
C     2.2804304221     -1.985761738     -1.4297946294
C     1.0932633631     -1.7284841414     -2.2307074915
C     3.0859726756     -0.8930893976     -1.0970179328
C     2.6912100261     -1.3185080866     1.3123930922
C     3.465144247     -0.6517030603     0.3142853664
C     0.4833442249     -1.1439541905     2.4299839532
C     1.7792050726     -0.5262815281     2.1238096672
C     -1.989471286     -0.9369817238     2.0565122963
C     -0.7145776431     -0.3233470768     2.464314507
C     -3.0921092945     -0.1041474435     1.7355006036
C     -3.3337666968     -1.3016837766     -0.3860947311
C     -3.8260728156     -0.3404300521     0.4970394311
C     -1.7114411744     -1.0080660569     -2.2341361811
C     -2.9320981894     -0.6189698797     -1.6251711785
C     0.724281177     -0.3475401111     -2.5211563933
C     -0.7059012495     -0.0081420607     -2.6003806773
C     2.9513280309     0.3755926792     -1.7122549651
C     1.7011391442     0.7307008758     -2.3173056245
C     3.7950512107     0.6640399468     0.471601388
C     3.6521307568     1.3152806375     -0.8427301562
C     1.9372834205     0.9203500523     2.1175695882
C     3.091774656     1.4776180721     1.436514818
C     -0.5754691573     1.1308884042     2.4640051774
C     0.7341696792     1.7617497653     2.2798525807
C     -2.9813816759     1.2989436195     1.87382618
C     -1.7506631544     1.910064434     2.1656081282
C     -3.9604832524     0.9215853642     -0.2007096782
C     -3.2972079649     0.762889999     -1.4847351368
C     -3.5176260809     1.9187133821     0.6557430333
C     -1.1013623814     1.3456201474     -2.4845250417
C     -2.3801999318     1.7276550354     -1.9080733676
C     1.2561729525     2.1390708761     -2.1611165119
C     -0.1373129044     2.3968876388     -2.2216682747
C     3.2059980333     2.577867761     -0.6462372445
C     3.007950773     2.7703529688     0.8249701216
C     2.0338721142     3.0618918594     -1.3433963873
C     0.7627999961     3.1045989684     1.7483927135
C     1.868909416     3.5128650647     0.9553497224
C     1.3542963398     3.8704616791     -0.4006014624
C     -1.6413557278     3.0981963945     1.3121712718
C     -2.6141151592     2.9419868343     0.2271172044
C     -2.1351544251     2.9176911995     -1.0926451646
C     -0.7862420216     3.3560544237     -1.3543938892
C     -0.4138843726     3.623646716     1.0660148414
C     -0.0351085301     3.9464687502     -0.3239264435


