60

 C     -0.8097248119     -4.8300648729     0.4771538185
C     0.0832877655     -4.9517937544     -0.5945494292
C     1.3084855664     -4.3271522521     -0.168547983
C     -0.1516941599     -4.108345705     1.5757988787
C     1.2006469249     -3.8386708137     1.2005845374
C     -0.9869085723     -3.0407050349     2.0421501838
C     -1.89997839     -3.9978582769     0.0879194792
C     -2.1629065375     -3.0504274681     1.145920759
C     -0.4191276409     -4.0696650001     -1.6539943344
C     -1.6880237022     -3.5044129639     -1.2526522834
C     1.76148975     -3.4230397075     -1.1778297999
C     0.5933153832     -3.1716497373     -2.0673455336
C     2.5241243079     -2.3526255827     -0.7788997296
C     1.7886136929     -2.5898022407     1.5610716346
C     2.7017532661     -2.0150799205     0.623569091
C     -0.445253521     -1.8014270486     2.4654333462
C     1.0074095113     -1.633883964     2.3713823588
C     -1.2915207544     -0.5829673382     2.3874363724
C     -2.7112110075     -1.8585035388     0.7974152572
C     -2.4360122047     -0.663401006     1.5724101331
C     -2.001972015     -2.144327161     -1.5675099128
C     -2.7939898132     -1.4400562657     -0.6011241445
C     0.302168009     -1.8293286009     -2.4558932872
C     -1.0553701605     -1.3213129474     -2.3272401868
C     2.5066134317     -1.1119384713     -1.5295671491
C     1.4040779936     -0.8556965851     -2.396530298
C     3.0408009307     -0.6330541705     0.6567062499
C     2.9982310371     -0.0709228882     -0.6949239574
C     1.4963358339     -0.3261358108     2.4954145791
C     2.5959941532     0.1717932314     1.6927977437
C     -0.7430797502     0.7581974825     2.6006003643
C     0.6582040792     0.8278971523     2.7745119857
C     -1.4370315332     1.9632268931     2.105162233
C     -2.8182768495     0.4559530432     0.7740365265
C     -2.8938420183     -0.0399593254     -0.5988618527
C     -2.4551756716     1.7664117452     1.0714835689
C     -1.290018924     0.1137314582     -2.4408587362
C     -2.3339739726     0.7542950037     -1.6362658347
C     1.1304525938     0.49846134     -2.6500222102
C     -0.2225110121     0.9703796077     -2.8250995651
C     2.6912763178     1.2988982204     -0.910912585
C     1.8727636429     1.5706531208     -2.0451482821
C     2.4646574128     1.5935349212     1.5279220294
C     1.3769181017     2.008930174     2.3822237269
C     2.5919236256     2.2089308067     0.2420837031
C     -0.7416751732     3.2087055128     2.0811260836
C     0.7036596134     3.2006009063     2.1550657244
C     -1.0880721356     4.2575935997     1.1261201674
C     -2.5392085979     2.6835223794     -0.0412401675
C     -2.3154929965     2.1399563224     -1.3878405981
C     -1.9469059199     3.9496300357     0.0341320204
C     -0.2397424363     2.3940867316     -2.608757054
C     1.0858784463     2.7813862731     -2.1331154202
C     -1.3616168219     3.0218960408     -2.0272799596
C     -1.198542651     4.1839408484     -1.2154186425
C     1.962440018     3.4821111009     0.0538425605
C     1.1898823169     4.0724984931     1.1123552303
C     0.1098920191     4.8480244749     0.6029311038
C     1.2419871989     3.7927173532     -1.1847504906
C     0.0855767107     4.6062441798     -0.8245822234


