60

 C     -2.2532218586     -3.7580547795     0.3195575734
C     -0.8991753847     -4.0053400256     0.7116252415
C     -0.5346155985     -3.1614384463     1.8305119194
C     -2.7136500893     -2.7061230842     1.0972687737
C     -1.6688163009     -2.2928772425     2.0522589615
C     -3.2690175963     -1.682714745     0.2533571048
C     -2.1938519437     -3.2401936672     -1.0582342354
C     -2.8465013128     -1.9725323304     -1.1035643336
C     -0.0765123951     -4.0026129854     -0.44030247
C     -0.8745197819     -3.3156515595     -1.5136436762
C     1.2562613433     -3.6824459295     -0.2840878846
C     0.7879693078     -2.6518392894     1.9247142773
C     1.7470428193     -3.116844307     0.9560477165
C     0.9665822771     -1.3156061072     2.5004823965
C     -1.5189714555     -0.9284578349     2.3665968362
C     -0.1758119578     -0.4342715699     2.6887016732
C     -3.3648394756     -0.3697550266     0.717405945
C     -2.5562900609     0.0212817065     1.8837074215
C     -3.5644453891     0.5872877932     -0.3271657425
C     -2.3428248794     -0.8905827232     -1.9029279012
C     -2.9058355969     0.3608289996     -1.5909224415
C     -0.2624009039     -2.2083450538     -2.2461309396
C     -0.9911730335     -0.9570855515     -2.4555920609
C     1.9431981981     -3.0397148985     -1.378114787
C     1.1590674748     -2.1808570567     -2.2291415105
C     2.8670582938     -2.2805258943     0.5844831461
C     2.9782304459     -2.2505854631     -0.8580073021
C     2.2597849065     -0.7041254928     2.3367322736
C     3.1592766168     -1.1363862878     1.2987710076
C     2.4481978126     0.6956422838     2.4710368715
C     0.0434153516     1.0206718233     2.7134725039
C     1.3712796551     1.5662853534     2.5408359063
C     -2.3218986224     1.3978299817     2.0434640169
C     -1.0032121491     1.8869830479     2.3778613094
C     -3.4416281405     1.9654598523     -0.0537097066
C     -2.8928837047     2.3692138485     1.1470303894
C     -2.2790449652     1.6101084256     -1.9992821726
C     -2.7286097883     2.6446354776     -1.1525227755
C     -0.2649964627     0.2953584744     -2.7142044788
C     -0.9321355124     1.5837571751     -2.516173586
C     1.8738010127     -0.9296553986     -2.3915788522
C     3.0162873856     -0.9689219336     -1.5198889363
C     1.1983012723     0.2743409718     -2.6792944097
C     3.6589626465     0.0795337078     0.6065667622
C     3.3418503167     1.1635613674     1.4151835681
C     3.4635473944     0.1964150174     -0.8393829223
C     1.6380148587     2.7313687203     1.6674867147
C     2.822908564     2.3984913984     0.9029161574
C     -0.753709117     3.1413672918     1.6218348041
C     -1.8894433554     3.4021759858     0.8678306556
C     -1.7902875557     3.5523941897     -0.5780436966
C     0.5642642886     3.4411765738     1.0987445754
C     -0.152448546     2.7610683118     -2.2382993507
C     -0.5314846492     3.660535056     -1.1514798605
C     0.6488532079     3.8114111345     -0.3018084334
C     1.9340985477     1.4706790418     -2.3479714697
C     3.0102215617     1.4341374121     -1.3491407644
C     2.8102929789     2.592917329     -0.4912134782
C     1.2646211182     2.6950965941     -2.2317870814
C     1.7608681265     3.3715302377     -1.0528689428


