60

 C     0.2518209006     -4.4324962258     1.0696852468
C     0.6335072078     -4.539536747     -0.2793321588
C     1.7884806839     -3.7599493371     -0.491468511
C     1.1712581174     -3.5520694755     1.7467394703
C     2.1681370926     -3.1366093015     0.7926760194
C     0.4112709853     -2.5163969333     2.3599106416
C     -1.0492017912     -3.8127352705     1.1178171824
C     -1.0109478723     -2.7033278819     2.0151042028
C     -0.4610056164     -3.9697046866     -1.1025793869
C     -1.5569868017     -3.6020122301     -0.2220900908
C     1.5083052531     -2.8590249198     -1.5782355401
C     0.0728663776     -2.9854349018     -1.9406042854
C     2.1103879657     -1.62044344     -1.6453104762
C     2.6326920609     -1.8198007719     0.79614832
C     2.94664888     -1.2073372872     -0.5051690516
C     0.9078426742     -1.2039573968     2.4644865423
C     2.1578501544     -0.8740718938     1.8062861325
C     -0.0653391943     -0.1428714691     2.747395217
C     -1.8473152198     -1.5944225638     1.8052857053
C     -1.463267419     -0.305888174     2.3861219616
C     -2.3163219665     -2.469794034     -0.4944393338
C     -2.7298138253     -1.6201927091     0.6353149747
C     -0.6879486179     -1.8162393809     -2.2678861486
C     -2.0385371911     -1.7382483898     -1.742355433
C     1.4603763343     -0.5511358471     -2.4367547146
C     0.0072014022     -0.5942622474     -2.6246879543
C     2.1081388573     0.6714886087     -2.5017682366
C     3.4977980101     0.057368366     -0.536451585
C     3.314633652     0.8855881482     -1.6919675978
C     2.5960386463     0.5112521252     1.7439546421
C     3.4493536781     0.9316348257     0.6597826619
C     0.4624835942     1.1631889528     2.8921475339
C     1.7979194736     1.4990495104     2.373784143
C     -0.3773724347     2.2773153756     2.7249204046
C     -2.2789353059     0.8662320092     2.0952502641
C     -1.6996995925     2.1608649654     2.2390772978
C     -3.4863292997     -0.4859609454     0.3477067649
C     -3.3332159008     0.7439232441     1.1206330272
C     -2.7625952201     -0.570842362     -1.9771564486
C     -3.7816950547     -0.1345184019     -1.0297060576
C     -0.7223956431     0.6555947203     -2.6848260574
C     -2.1246375739     0.6075162358     -2.5022205153
C     1.3567214328     1.9252180579     -2.4587936082
C     -0.0410268087     1.9253182129     -2.388372434
C     3.3530406856     2.2169470082     -1.2770935115
C     3.3997688812     2.2586547453     0.1785597872
C     2.1257810631     2.8404734992     -1.6612808676
C     1.7090831513     2.8350321854     1.8225213455
C     0.3554391479     3.270596731     1.9674327442
C     2.3617103387     3.1373183978     0.6259385412
C     1.5311318597     3.5056175161     -0.5445327369
C     -1.7896829626     3.1215979707     1.1387317383
C     -0.6910507926     2.9127688114     -1.5051271911
C     -0.447342147     3.6377251229     0.8748844468
C     0.1170375313     3.5674494933     -0.4563216344
C     -3.591030552     1.8054873504     0.2184790919
C     -3.8796348046     1.2560991368     -1.0975890571
C     -2.8173123175     1.7350070823     -1.935934866
C     -2.6382734344     2.8738141214     0.0897880742
C     -2.0758107328     2.7631426945     -1.2765086351


