60

 C     0.6358281229     -4.6199588301     0.3936894396
C     -0.7620795447     -4.3478823565     0.3971856149
C     -1.1758895128     -4.0109160988     -0.9360069785
C     1.1376475019     -4.1263081473     -0.9003211321
C     0.0688290768     -3.79870898     -1.7179388429
C     2.115704542     -3.0956736996     -0.6865082467
C     1.1902856751     -3.729339766     1.3408182963
C     2.2050998275     -2.9081721628     0.7506793996
C     -1.0970362026     -3.4405008664     1.4785391688
C     0.1685617193     -3.0382144194     2.0909304523
C     -2.1154511777     -2.4749963932     1.3017966968
C     -1.9994883429     -2.9195177539     -1.1546822236
C     -2.6739793752     -2.2656914666     -0.0513405038
C     -0.0327551196     -2.5188029068     -2.3787251621
C     -1.3649860717     -2.0537784255     -2.174997525
C     2.1805652237     -1.9402712073     -1.5424300724
C     1.0267806734     -1.5676212712     -2.3825726418
C     2.9764000236     -0.9095855945     -1.0388622477
C     2.5301858148     -1.6410130501     1.2901529066
C     3.2778997271     -0.8372570002     0.3899634096
C     0.3862792205     -1.7062939521     2.5416618135
C     1.6465824663     -0.9849829447     2.2421854618
C     -2.0435539568     -1.31908988     2.1401100812
C     -0.7791451492     -0.9232113189     2.7340636303
C     -2.7680260635     -0.1289052144     1.8602419442
C     -3.242776311     -1.0316875135     -0.3558241464
C     -3.483274544     -0.0141582898     0.6552623545
C     -1.7028181881     -0.7035377883     -2.3146025319
C     -2.8883460306     -0.3118294709     -1.5962934609
C     0.7185857016     -0.1556984998     -2.5969766222
C     -0.6717993936     0.2794771498     -2.6285478563
C     2.919709917     0.4317986861     -1.5651555288
C     1.7593209696     0.8484202022     -2.3178283286
C     3.4775841163     0.5018768295     0.6768402266
C     3.4484875396     1.2900117529     -0.5677151481
C     1.6959660429     0.4612753886     2.3659966145
C     2.7231064738     1.1776822081     1.6489732925
C     -0.7452605225     0.5026358026     2.8369909745
C     -1.9913400837     1.0169301791     2.3244063182
C     0.4712709209     1.2239322826     2.6830527505
C     -2.0562285679     2.2796714296     1.688523383
C     -3.541482727     1.2483708616     0.0116720689
C     -3.1407589841     1.032282715     -1.3930826961
C     -2.84669249     2.3652243045     0.4675442512
C     -1.0019068298     1.7015287413     -2.4548137073
C     -2.2391344756     2.0388029556     -1.7892579224
C     -2.2461267341     3.02855904     -0.7138696579
C     1.4234649929     2.2233572853     -2.2228593713
C     0.0418766414     2.6630093181     -2.3401709629
C     2.928654955     2.5476926889     -0.3003520356
C     2.5217942364     2.5412046413     1.1372752597
C     2.0728959788     3.1213245414     -1.2672577366
C     0.3556713627     2.5848366258     2.2748748507
C     -0.8887999721     3.1102150415     1.7744438156
C     1.41960061     3.2602921688     1.5160928021
C     -1.1950410122     3.8971016995     -0.574497209
C     -0.1229221801     3.8400600297     -1.5409743289
C     1.0988558544     4.0533451818     -0.8294056179
C     -0.6011745258     4.0838868723     0.7483640476
C     0.7947782606     4.168798645     0.5715391203


