60

 C     -1.7346331928     2.1887557365     -3.2235379852
C     -0.4814963103     1.7694091046     -3.7828813933
C     -0.5781641385     0.3804157476     -4.1073325145
C     -2.4820708246     0.9964930807     -2.9107990924
C     -1.7896122822     -0.1308698425     -3.4243803922
C     -2.8386462323     1.0430954081     -1.5258776752
C     -1.4941540327     2.8676034325     -2.0218171634
C     -2.2581037907     2.2773420371     -0.9680239376
C     0.5825287865     2.1998053071     -2.9206256861
C     -0.0410231315     2.9630143948     -1.8430343062
C     1.6931645562     1.3301010017     -2.637389994
C     0.5781641385     -0.3804157476     -4.1073325145
C     1.7896122822     0.1308698425     -3.4243803922
C     0.4814963103     -1.7694091046     -3.7828813933
C     -1.6931645562     -1.3301010017     -2.637389994
C     -0.5825287865     -2.1998053071     -2.9206256861
C     -2.8012863962     -0.1061602279     -0.728053841
C     -2.2528603924     -1.3415060969     -1.295063996
C     -2.8012863962     0.1061602279     0.728053841
C     -1.7877108721     2.3296895627     0.3468756714
C     -2.2528603924     1.3415060969     1.295063996
C     0.4810459644     2.9710016451     -0.5707434595
C     -0.4810459644     2.9710016451     0.5707434595
C     2.2528603924     1.3415060969     -1.295063996
C     1.7877108721     2.3296895627     -0.3468756714
C     2.8012863962     0.1061602279     -0.728053841
C     2.4820708246     -0.9964930807     -2.9107990924
C     1.7346331928     -2.1887557365     -3.2235379852
C     2.8386462323     -1.0430954081     -1.5258776752
C     0.0410231315     -2.9630143948     -1.8430343062
C     1.4941540327     -2.8676034325     -2.0218171634
C     2.2581037907     -2.2773420371     -0.9680239376
C     -1.7877108721     -2.3296895627     -0.3468756714
C     -0.4810459644     -2.9710016451     -0.5707434595
C     -2.8386462323     -1.0430954081     1.5258776752
C     -2.2581037907     -2.2773420371     0.9680239376
C     -2.4820708246     -0.9964930807     2.9107990924
C     -1.6931645562     1.3301010017     2.637389994
C     -1.7896122822     0.1308698425     3.4243803922
C     0.0410231315     2.9630143948     1.8430343062
C     -0.5825287865     2.1998053071     2.9206256861
C     2.2581037907     2.2773420371     0.9680239376
C     1.4941540327     2.8676034325     2.0218171634
C     2.8012863962     -0.1061602279     0.728053841
C     2.8386462323     1.0430954081     1.5258776752
C     1.7877108721     -2.3296895627     0.3468756714
C     0.4810459644     -2.9710016451     0.5707434595
C     2.2528603924     -1.3415060969     1.295063996
C     -1.4941540327     -2.8676034325     2.0218171634
C     -1.7346331928     -2.1887557365     3.2235379852
C     -0.0410231315     -2.9630143948     1.8430343062
C     -0.5781641385     -0.3804157476     4.1073325145
C     1.6931645562     -1.3301010017     2.637389994
C     -0.4814963103     -1.7694091046     3.7828813933
C     0.5825287865     -2.1998053071     2.9206256861
C     0.4814963103     1.7694091046     3.7828813933
C     1.7346331928     2.1887557365     3.2235379852
C     2.4820708246     0.9964930807     2.9107990924
C     0.5781641385     0.3804157476     4.1073325145
C     1.7896122822     -0.1308698425     3.4243803922


