60

 C     0.0343607742     -4.517458536     0.2535513007
C     -0.642123922     -4.3402846419     -0.9309532588
C     -1.9211172146     -3.6272383421     -0.6339711564
C     -0.8447869941     -4.0073180336     1.3520786467
C     -1.9728380944     -3.3330776399     0.7720233652
C     -0.0466518112     -3.3447715622     2.2472967509
C     1.3574402342     -3.9529427648     0.4421479213
C     1.3429360162     -3.3790718481     1.7416472135
C     1.9711107476     -3.1856454067     -0.6449219963
C     -0.0346134082     -3.7093851637     -2.0519871756
C     1.2541439481     -3.0677910884     -1.8860584768
C     -2.0769883866     -2.6282365711     -1.6019935678
C     -0.9433882932     -2.7176841572     -2.5122788997
C     -2.5672327997     -1.3500640979     -1.2322638387
C     -2.3057254139     -2.0153883149     1.1880832467
C     -2.8663537828     -1.1336941903     0.1727623668
C     -0.3272758772     -2.0103462051     2.681846247
C     -1.4923262201     -1.3501440023     2.2265285745
C     1.9285890882     -2.1421819901     2.0581781202
C     0.9420806793     -1.2832305356     2.7006474976
C     2.7628692432     -2.0463252139     -0.2678701945
C     2.7860985682     -1.5474251336     1.121950916
C     2.890111521     -0.8973818608     -1.0923385642
C     1.160415918     -1.7665694683     -2.5225970109
C     -0.2310456763     -1.5273497614     -2.8330731667
C     1.9692160344     -0.6750765749     -2.1694369041
C     -2.1379363827     -0.189122949     -2.0229212563
C     -0.8199235512     -0.2516193885     -2.6666356921
C     -2.610718727     1.0650319525     -1.6238787749
C     -3.1740393203     0.1809512249     0.567896428
C     -3.3153669046     1.1871548587     -0.3891511676
C     -1.5074074264     0.103905649     2.3717683985
C     -2.5548560402     0.8047412108     1.7551824757
C     1.0139767677     0.1134098198     2.6107281419
C     -0.2564380185     0.8465299655     2.6851461932
C     2.9719169706     -0.1507236978     1.1409221202
C     3.229213484     0.2287454821     -0.235208866
C     2.1516525372     0.7254174229     1.9308297675
C     3.037193711     1.5009159048     -0.6469699492
C     1.4657866849     0.6795158568     -2.410335718
C     0.0549450817     0.9179532138     -2.6334662099
C     2.248564756     1.7554612836     -1.8609574493
C     -1.8441654866     2.2897562771     -1.8075911109
C     -0.5227657832     2.2373380902     -2.3086201986
C     -2.9576209443     2.4615128822     0.2019277376
C     -2.4873274989     2.2214402876     1.5291699022
C     -2.1866240139     3.209342725     -0.7100083443
C     -0.2173548394     2.2314835434     2.5220552068
C     -1.3685328702     2.9590950583     1.9904016535
C     2.109832998     2.1361391561     1.5801903042
C     2.7157547755     2.5470577576     0.3235144896
C     1.0021773376     2.9197170449     2.0511566057
C     1.7389838584     3.0357561845     -1.7224250113
C     0.3578124133     3.3329711968     -1.9197983928
C     2.1707523108     3.6140509065     -0.4176799584
C     -1.2222229971     4.1130244217     -0.1881832319
C     -0.8855798873     4.0261544051     1.2156913663
C     0.5776237105     4.0767223644     1.3417729401
C     -0.0111775712     4.2647555725     -0.9028757672
C     1.1069657874     4.361497521     0.069355311


