60

 C     1.4725769011     4.2055122452     0.0066839749
C     0.2117882964     4.1762929707     0.6792947694
C     0.288472685     3.3469982002     1.8317276929
C     2.3401253586     3.2922425341     0.6616776972
C     1.632811938     2.7495769609     1.7919927516
C     2.743309982     2.3045549198     -0.3035671198
C     1.2044498061     3.6955557764     -1.3028438806
C     2.0324115571     2.5788543478     -1.555560448
C     -0.867119774     3.9936043388     -0.2686284616
C     -0.2313265975     3.5779503894     -1.5250521433
C     -2.0150763856     3.3362164057     0.1587545457
C     -0.8403786771     2.5468244795     2.2029320494
C     -2.0278589379     2.6017953016     1.4239492163
C     -0.5702293001     1.3050462128     2.8611762587
C     1.8453723701     1.4104350255     2.2232372896
C     0.7829836879     0.799845326     2.9507065177
C     3.047607484     0.9724207767     0.0738582402
C     2.7141501574     0.521828401     1.4306838455
C     3.0165924297     0.0154498175     -0.9727720293
C     1.5818032498     1.5015262872     -2.3727565967
C     2.2789694443     0.2767787728     -2.2009123758
C     -0.7458589668     2.4930229751     -2.2814886811
C     0.1814265187     1.4694962887     -2.8049797802
C     -2.7204469198     2.541534873     -0.7907689706
C     -2.0976549316     2.0722792577     -1.9477898834
C     -2.8190132559     1.389982803     1.2262266739
C     -3.287510368     1.38459433     -0.1012298788
C     -1.4480101419     0.1745573832     2.7951535956
C     -2.5073447219     0.133415265     1.8382962805
C     0.7208337232     -0.6217803217     3.1478109252
C     -0.6802096087     -1.0099389942     3.1027471447
C     2.6465869102     -0.8679760969     1.6622277164
C     1.673084471     -1.4480839735     2.5724723161
C     2.9798038864     -1.3945446785     -0.7105918036
C     2.8346445112     -1.8400064427     0.6062595764
C     1.7427792828     -0.9720525097     -2.6380926101
C     2.2366340363     -2.0415877184     -1.774887965
C     -0.3470280317     0.1976954304     -3.1516254797
C     0.4332249498     -1.0060150035     -3.1231410377
C     -2.5180758207     0.6716255693     -2.1122205626
C     -3.2141587917     0.2341603354     -0.9096062849
C     -1.6928863155     -0.2023824171     -2.7574071068
C     -2.7425969556     -1.1088618461     1.1001033343
C     -2.9785962295     -1.0495516086     -0.3391879913
C     -1.0478459737     -2.2329694053     2.6059138631
C     -2.1382764304     -2.3086416683     1.6180789539
C     1.3076338717     -2.7847184989     2.1165237073
C     2.0457984337     -3.0329441831     0.8890767132
C     -0.0265384566     -3.2158882428     2.2325351621
C     1.4740561644     -3.1655772124     -1.5180394975
C     1.4410086919     -3.7412554428     -0.1697630157
C     -0.4191454379     -2.1347728573     -2.7519110189
C     -1.6988316518     -1.6086664053     -2.3924948328
C     -2.3844054991     -2.0699112592     -1.2156979483
C     0.1109204917     -3.2440089335     -2.0672592313
C     -1.8745604522     -3.4075688884     0.7964340169
C     -0.5933982752     -4.0080858422     1.1884863554
C     0.1242077048     -4.2730895496     0.0266766006
C     -1.9050407212     -3.2852441195     -0.6386734825
C     -0.7066450656     -3.8955498807     -1.1227475672


