60

 C     -2.7142425947     -3.3896692775     -0.3173286386
C     -1.4461647092     -3.7846385239     -0.8207761114
C     -0.5041685615     -3.8417059493     0.2341962964
C     -2.5231598913     -2.987276735     1.054673241
C     -1.1703394901     -3.2083096275     1.4002930935
C     -2.9942527657     -1.6395566224     1.1925252523
C     -3.0681151562     -2.2069701835     -1.018616145
C     -3.4398969096     -1.1775623538     -0.1111457982
C     -1.1108616069     -2.9767850672     -1.9931569348
C     -2.1090379858     -1.9150987236     -2.0776817484
C     0.209770085     -2.6718478841     -2.2159161822
C     0.8709340915     -3.6079629709     -0.0238052695
C     1.2581499763     -3.1504386291     -1.328343551
C     1.6506082831     -3.1317325801     1.0902469846
C     -0.431513438     -2.2544325803     2.1985217312
C     0.9639435101     -2.3460552094     2.1471180661
C     -2.3742978335     -0.6988307304     2.0686250588
C     -1.0255579161     -0.9537543276     2.5541800188
C     -2.796250023     0.6375056206     1.8689767865
C     -3.3048340658     0.1765095777     -0.4904901167
C     -3.3097407572     1.1043973244     0.571878636
C     -1.7448168627     -0.5846301592     -2.3531703272
C     -2.5312034716     0.493512419     -1.7159600767
C     0.5867846604     -1.3467904019     -2.6768472778
C     -0.3503083537     -0.2973650734     -2.7494274808
C     2.3764931022     -2.263332153     -1.4775572916
C     1.9597649325     -1.1200030829     -2.2890367769
C     2.8999265194     -2.568960053     0.8858444099
C     3.2963998384     -2.0851505107     -0.4255062325
C     1.8309519391     -1.2401003295     2.5025700581
C     3.0721578649     -1.4636093866     1.8330983708
C     -0.1501953493     0.1837071715     2.8037541035
C     1.2970568908     0.0698737419     2.6360468287
C     -2.0558154988     1.6987455682     2.4180338354
C     -0.704388348     1.500533704     2.73919385
C     -2.8694991215     2.4533226016     0.3842619339
C     -2.161753528     2.8644580154     1.5483149629
C     -2.095589157     1.8007872509     -1.8859517552
C     -2.3689024476     2.8454876792     -0.8933041308
C     0.1616382289     1.0714612305     -2.7179080617
C     -0.7966552779     2.1093435278     -2.5183152873
C     2.4399731236     0.1857325476     -2.0539539496
C     1.5634863122     1.3173049028     -2.3629995026
C     3.8459083211     -0.7851557041     -0.2484330704
C     3.6932558799     -0.4201384966     1.180572573
C     3.4369681868     0.3203348513     -1.0063980384
C     2.0477836116     1.2047156769     2.0543586078
C     3.1938437623     0.900114261     1.2766148948
C     3.2961098828     1.4480539439     -0.0858113808
C     0.0474571143     2.654149533     2.1901344236
C     -0.9043294404     3.4921275639     1.458506812
C     1.3554485132     2.4689746548     1.7356313161
C     -1.3215822812     3.7756280825     -0.9443400446
C     -0.3984629915     3.3719797006     -2.0290507743
C     -0.5333493824     4.0876115936     0.2154897157
C     1.8772702946     2.5698157471     -1.7391135073
C     2.5804892658     2.5305267463     -0.4490341017
C     1.7551023582     3.2199212974     0.54238198
C     0.9071528146     3.5705198382     -1.5979949051
C     0.8344560524     3.9907062528     -0.1686691719


