60

 C     -3.5692931406     -0.8602832195     2.2745541123
C     -3.6786538724     0.4849835391     1.7345515422
C     -3.7728341394     0.4155586185     0.3385508929
C     -3.4014509984     -1.7528486278     1.1758311182
C     -3.5613344882     -1.0256177989     -0.0202324585
C     -2.1383106139     -2.4520371972     1.3320336331
C     -2.3848124756     -0.8981398619     3.0265035336
C     -1.5379063537     -1.9659858356     2.5590303956
C     -2.6591783962     1.3177027727     2.3368062086
C     -1.8154059637     0.4289925369     3.1682995135
C     -2.0310942593     2.2816121402     1.5632404061
C     -3.1529080424     1.4293948311     -0.4700693496
C     -2.3076690743     2.3921944153     0.1495976221
C     -2.8258634055     1.0852465211     -1.7969185736
C     -2.8299680547     -1.3560956033     -1.1928902076
C     -2.8246036668     -0.3462831161     -2.2045117339
C     -1.3182288741     -2.7516656443     0.2098577841
C     -1.6816254986     -2.273170759     -1.1296169662
C     0.0610852542     -2.9444579398     0.5057314997
C     -0.1449179252     -1.8493054107     2.7065273804
C     0.6332996612     -2.5728194691     1.7692905085
C     -0.431613089     0.6034039406     3.2657001876
C     0.431613089     -0.6034039406     3.2657001876
C     -0.6332996612     2.5728194691     1.7692905085
C     0.1449179252     1.8493054107     2.7065273804
C     -1.0853608231     2.8188267266     -0.5013362707
C     -0.0610852542     2.9444579398     0.5057314997
C     -1.799274832     1.7451220237     -2.5304550169
C     -0.7605460834     2.4688967847     -1.8275026041
C     -2.0076158251     -0.4793157193     -3.3060363857
C     -1.4323591197     0.8584820162     -3.5940381021
C     -0.6690820119     -2.2352202333     -2.1826863795
C     -0.934707736     -1.4168810021     -3.3355287215
C     1.0853608231     -2.8188267266     -0.5013362707
C     0.7605460834     -2.4688967847     -1.8275026041
C     2.0310942593     -2.2816121402     1.5632404061
C     2.3076690743     -2.3921944153     0.1495976221
C     1.8154059637     -0.4289925369     3.1682995135
C     2.6591783962     -1.3177027727     2.3368062086
C     1.5379063537     1.9659858356     2.5590303956
C     2.3848124756     0.8981398619     3.0265035336
C     1.3182288741     2.7516656443     0.2098577841
C     2.1383106139     2.4520371972     1.3320336331
C     0.6690820119     2.2352202333     -2.1826863795
C     1.6816254986     2.273170759     -1.1296169662
C     -0.1517082276     0.7296099195     -4.0242836687
C     0.1517082276     -0.7296099195     -4.0242836687
C     0.934707736     1.4168810021     -3.3355287215
C     1.799274832     -1.7451220237     -2.5304550169
C     1.4323591197     -0.8584820162     -3.5940381021
C     2.0076158251     0.4793157193     -3.3060363857
C     3.1529080424     -1.4293948311     -0.4700693496
C     2.8299680547     1.3560956033     -1.1928902076
C     2.8258634055     -1.0852465211     -1.7969185736
C     2.8246036668     0.3462831161     -2.2045117339
C     3.6786538724     -0.4849835391     1.7345515422
C     3.5692931406     0.8602832195     2.2745541123
C     3.4014509984     1.7528486278     1.1758311182
C     3.7728341394     -0.4155586185     0.3385508929
C     3.5613344882     1.0256177989     -0.0202324585


