60

 C     -0.7919701627     -4.5836640709     -0.1420296209
C     0.2636296731     -4.2449055448     -1.0928261027
C     1.4287651277     -4.0244871332     -0.3683789379
C     -0.3115402045     -4.2316084365     1.1913970753
C     1.056727966     -3.988264507     1.0988337605
C     -1.1501595335     -3.1955368916     1.7446173402
C     -1.8895361784     -3.7830981462     -0.4174731625
C     -2.2499956617     -3.071900477     0.8001418345
C     -0.2040221532     -3.1775809715     -1.9484953569
C     -1.5872126557     -2.936428654     -1.5685477576
C     0.6256022942     -2.0554159249     -2.2652490727
C     2.26517759     -2.9349087557     -0.6356881596
C     1.9665021356     -1.9773972431     -1.6650224197
C     1.6340155154     -2.8364446668     1.6431141333
C     2.6335409268     -2.3930772359     0.672263633
C     -0.5953760355     -1.990381272     2.3118053472
C     0.8509195794     -1.8066393454     2.3095412621
C     -1.4249212323     -0.7789800444     2.3301509509
C     -2.8905151225     -1.8756232026     0.6679907155
C     -2.6448620153     -0.8115563215     1.5874651102
C     -2.1843832072     -1.6604460936     -1.7033458767
C     -3.0742479544     -1.2527314981     -0.6524733289
C     -0.0328317004     -0.8079012076     -2.6656365008
C     -1.4641134333     -0.6142354631     -2.4203825553
C     0.7680249543     0.3555604802     -2.8006971855
C     2.6623560509     -0.6990809757     -1.5898238468
C     2.1131071425     0.4201705604     -2.2695467393
C     3.1905356665     -1.1776771822     0.7853463743
C     3.4551033507     -0.3962407831     -0.41675403
C     1.4290192862     -0.4667319301     2.4041963198
C     2.7348178491     -0.2665925604     1.8305529244
C     -0.8499200587     0.5381318265     2.5962632461
C     0.591289027     0.7253388589     2.6050232721
C     -1.6912697412     1.6921329762     2.3431938879
C     -3.2109318279     0.3761438886     0.9901723367
C     -3.3841117315     0.1059296345     -0.4415023796
C     -2.8309473958     1.6034808869     1.4192945667
C     -1.9793839732     0.7107653854     -2.3425559659
C     -2.9590904539     1.0801439308     -1.3493426598
C     0.2101220354     1.6864051074     -2.7743958655
C     -1.1463540997     1.8718182886     -2.5411519223
C     2.3573370375     1.7864693983     -1.8490462987
C     1.1810795212     2.5810503881     -2.1675849873
C     3.6191312265     0.9227856794     0.0172979919
C     3.1524880029     0.9998247281     1.4047949975
C     3.0742305674     2.0354618273     -0.6654992907
C     1.137224042     2.0638694726     2.2894636242
C     2.3784433981     2.1572023048     1.5768438645
C     2.4645087088     2.9135935117     0.3285210454
C     -1.1475328279     2.9609121472     2.1563754644
C     0.2507555156     3.1682790487     2.0638608346
C     -2.7614435497     2.7321733273     0.4795090333
C     -2.7058481739     2.4398344857     -0.9053817307
C     -1.6100230159     2.9661783442     -1.6970767866
C     -1.8341704659     3.6457867514     1.0288264337
C     0.7569086582     3.614072256     -1.3403923927
C     1.4280562534     3.7684477627     -0.0335071321
C     0.4394868479     4.0383972404     0.9305873951
C     -0.6705611341     3.8511093723     -1.1276297893
C     -0.8416298504     4.2280665683     0.2499928797


