60

 C     -0.1958132393     4.4843548866     0.0036876313
C     0.9340502119     4.2869598925     0.7624693106
C     0.5497530684     3.5173823038     1.9894173346
C     -1.3485658597     4.001112596     0.8179580106
C     -0.8326996252     3.2544739143     1.9669905054
C     -2.2433242029     3.4214917431     -0.0241276576
C     -0.3147908405     3.8841561769     -1.3133526988
C     -1.6512316616     3.3774493114     -1.3821778765
C     0.7596307787     3.0751768074     -1.8511219738
C     2.0733627206     3.6774705562     0.2056025085
C     1.9904473596     3.0633802129     -1.0988922147
C     1.4939158459     2.4782811761     2.1563583394
C     2.4829470679     2.6363073826     1.1109694746
C     1.0694216012     1.1710799363     2.5003982636
C     -1.3142897466     1.9312014258     2.243595791
C     -0.3484503898     0.9230791582     2.6899717298
C     -2.823792322     2.1428840934     0.2613121788
C     -2.4570380203     1.4412741748     1.4613149269
C     -1.9705601242     2.1364070389     -1.91563262
C     -2.8504436924     1.4191518299     -0.9690139894
C     0.4009477465     1.8443499006     -2.6084459955
C     -0.9977055418     1.3852977988     -2.6607514712
C     1.3816599857     0.8256946962     -2.7567576893
C     2.763383505     1.8380460649     -1.0131542911
C     2.9730173922     1.522768674     0.3905983638
C     2.5215270365     0.7945209756     -1.8647510407
C     1.946369019     0.0560535001     2.0715238611
C     2.7891289748     0.2123890802     0.8784716157
C     1.5832253583     -1.2283675798     2.4220279761
C     -0.7709728927     -0.4614943568     2.8355836668
C     0.2393455406     -1.4828912564     2.9738370757
C     -2.7194788395     0.0523279963     1.4410572884
C     -2.0147494732     -0.8800824889     2.3010365455
C     -2.959136283     0.0106056124     -0.9961698829
C     -3.0861195045     -0.6546631823     0.2608173231
C     -1.2952221059     0.012193936     -2.8428614168
C     -2.3041022622     -0.682594442     -2.0467036675
C     1.0495414103     -0.5485755317     -3.0275803493
C     -0.2765242046     -0.9515237919     -3.1349959755
C     2.7500028211     -0.5678912589     -1.4354600389
C     2.8847786998     -0.9091825905     -0.0578148896
C     1.9926093431     -1.418546263     -2.313696497
C     2.037929748     -2.4128775124     1.7167866265
C     2.5331633993     -2.2594263002     0.3682447999
C     -0.0483359579     -2.8168868518     2.7259351352
C     1.1022643512     -3.4359891243     2.0271815905
C     -2.2002558422     -2.206582961     1.7754113217
C     -2.7083869859     -2.0437249947     0.4281133068
C     -1.2557084493     -3.2148070658     2.0446704858
C     -1.915783045     -2.0534757071     -1.8829125062
C     -0.6835071221     -2.2408675408     -2.6081140365
C     -2.1592272886     -2.790149916     -0.6563500499
C     1.6388147859     -2.6849817229     -1.9133441575
C     2.0539421452     -3.1965138635     -0.6185269284
C     0.2678385093     -3.1768890013     -2.171436901
C     0.5958992558     -4.2881854668     1.0527798403
C     -0.8846001173     -4.1256005889     1.0160659673
C     -1.2527940293     -3.881837274     -0.3328495536
C     1.0839742842     -4.190909639     -0.2591704772
C     -0.0592820965     -4.0718042792     -1.1440223487


