60

 C     -2.0314284287     -3.772800391     -0.650431238
C     -0.7204708637     -4.1482047769     -0.2306682154
C     -0.520203511     -3.6197432495     1.078864994
C     -2.6808931818     -3.0308401509     0.4058722019
C     -1.7519288537     -2.8965716825     1.464005119
C     -3.2621606168     -1.8528963771     -0.1724839521
C     -1.929229414     -2.9119107976     -1.7543516116
C     -2.7283124068     -1.7167245082     -1.5252141958
C     0.1953186799     -3.7297211576     -1.2659011732
C     -0.5468989922     -2.8337075043     -2.1758794978
C     1.4649264951     -3.4021251709     -0.8970501916
C     0.7673549203     -3.1429932146     1.4827587585
C     1.8287431061     -3.3438610945     0.5208193301
C     0.8564354022     -1.9916756752     2.4015507736
C     -1.6704043953     -1.6660466638     2.205440005
C     -0.3739621386     -1.2358587278     2.7378227031
C     -3.3335714734     -0.7216595749     0.6084409736
C     -2.6421418747     -0.6673786358     1.8805769673
C     -3.2554607616     0.5827296772     -0.0023186884
C     -2.276171047     -0.4791873412     -1.9883204639
C     -2.7253808704     0.7534095789     -1.3018801774
C     -0.0178266719     -1.596823662     -2.5652818123
C     -0.9619056909     -0.4496799548     -2.6726891463
C     2.1539599318     -2.2987235594     -1.5660404606
C     1.4170430621     -1.3272394467     -2.3227240283
C     2.9983608773     -2.5564458885     0.5804218829
C     3.202274507     -1.8883289221     -0.7352931053
C     2.0967671453     -1.2818711141     2.4544714243
C     3.1607162851     -1.5990963244     1.5510551967
C     2.1277144293     0.1640787657     2.579829735
C     -0.245731207     0.1367120992     3.0888444723
C     1.0023346254     0.8447370529     2.9321919071
C     -2.4277151183     0.7268948508     2.1675207573
C     -2.9185100888     1.5252019677     1.0456866075
C     -1.2719511615     1.1164532644     2.8180989744
C     -2.3830727273     2.7492291919     0.7405648897
C     -2.1522679739     2.0551125825     -1.6488955692
C     -2.1350717907     3.1074122618     -0.6547143627
C     -0.4251374673     0.7873058358     -2.94276682
C     -1.0993346245     2.0609986665     -2.6256857372
C     1.8928891884     0.0262463524     -2.297367636
C     1.024165192     1.0157711291     -2.8599732672
C     3.5019235502     -0.5210123334     -0.5196498572
C     3.6012839146     -0.3422829317     0.9034179747
C     2.9882115818     0.7300561595     1.5263673324
C     2.8617339714     0.4797708266     -1.2981768
C     2.5725744658     1.8822445133     0.7719175674
C     2.6619490275     1.7937706247     -0.6763781195
C     0.7621860651     2.1951872903     2.4314869753
C     -0.6484987934     2.3959110761     2.4696407294
C     -1.2702446948     3.2628224194     1.547665835
C     1.5619182372     2.754256116     1.3742323804
C     -1.0731212249     4.0601043371     -0.6343828937
C     -0.4629165273     4.039431657     0.7020996774
C     0.9390987043     3.7653317746     0.5605769925
C     -0.0888802643     3.0459662791     -2.5849690006
C     1.21815846     2.3555127724     -2.6045827441
C     1.9732787263     2.7875983164     -1.4502174415
C     -0.0393089786     4.005629402     -1.571544593
C     1.2387929834     3.8195239903     -0.8364104379


