60

 C     -0.7215921286     4.5885379069     1.1721890363
C     0.610736223     4.6272357707     0.8872493783
C     0.8569076869     4.3692304931     -0.5394506826
C     -1.4028817861     4.1939461139     -0.0696579112
C     -0.4111704401     4.0363849187     -1.1442571284
C     -2.187568601     3.0907307998     0.2341250385
C     -0.9179237625     3.5171493704     2.1581627757
C     -1.8879997387     2.6684981492     1.6467345499
C     1.3441838721     3.6421159961     1.6891165825
C     0.3732615234     2.8974143428     2.4599177304
C     1.9083132151     3.4392184078     -0.591695838
C     2.1729942904     2.9460561292     0.8035768633
C     1.9228467944     2.5015059932     -1.6282873714
C     -0.5003363121     2.9122984476     -2.0322804769
C     0.7278983078     2.2949347086     -2.4248424634
C     -2.4792445662     2.0763220731     -0.7354987579
C     -1.665125087     1.9992468082     -1.9499804128
C     -3.0477218122     0.9038501288     -0.2143706007
C     -1.8944798796     1.2787425329     1.9660044703
C     -2.7644820631     0.4982083977     1.1778520818
C     0.4898532996     1.480927143     2.5490034007
C     -0.714816468     0.6506213003     2.527349015
C     2.4398289155     1.5683139405     1.0025328774
C     1.6892395924     0.8467709589     2.0156469559
C     2.5643244884     1.2430566603     -1.4628261434
C     2.9196202009     0.8132727844     -0.1450551975
C     0.7964443041     0.9406160863     -2.9114678822
C     1.9525651787     0.2813056794     -2.3605649916
C     -1.608011139     0.7380247531     -2.5966306505
C     -0.3507886499     0.1883983156     -3.0828315491
C     -3.1268817794     -0.2966666974     -0.9719585205
C     -2.3917771164     -0.3885337327     -2.158940595
C     -2.7441819305     -0.9008586725     1.2563734262
C     -3.1083639857     -1.4222384309     -0.0582221181
C     -0.618335391     -0.7955589551     2.5323123517
C     -1.7562733857     -1.5789183575     2.0488356078
C     1.8275848738     -0.5870639634     2.1169332472
C     0.706142471     -1.4157907009     2.5643927563
C     3.1179523915     -0.5518492957     0.0246874113
C     2.8169373862     -1.1911884323     1.2718788228
C     1.9835517656     -1.1133876168     -2.1244483099
C     2.8496778189     -1.5187050755     -1.0522053883
C     -0.3364442212     -1.2453062485     -2.8942604316
C     -1.6576372058     -1.6188389976     -2.4506885526
C     0.8123491833     -1.953443131     -2.4203433535
C     -2.66105503     -2.6617443453     -0.4704811649
C     -1.837638834     -2.7583341034     -1.6896569713
C     -1.5913067005     -2.9741504289     1.7589725404
C     -2.0783199349     -3.5131596966     0.4939979385
C     0.7909375721     -2.8442655812     2.3772539834
C     -0.3534739419     -3.5919741575     2.0172403644
C     2.790604044     -2.5885870104     1.0041239432
C     2.7084058486     -2.7718180081     -0.4766137068
C     1.8771543716     -3.4068758273     1.5815672219
C     0.6183789881     -3.2403470024     -1.7106862081
C     -0.7319355245     -3.6501571224     -1.4046710534
C     -1.0337881165     -4.2684341318     -0.1275488489
C     -0.0252458267     -4.4613385011     0.8382268174
C     1.6532245473     -3.67135645     -0.7788776102
C     1.2848823041     -4.2520444361     0.5030437021


