60

 C     -0.8279406991     4.0787017407     0.6176968907
C     -2.0046300021     3.5422648081     0.1961499414
C     -1.8869229172     3.2068878427     -1.2513319916
C     0.0615300912     4.1742721866     -0.5683195679
C     -0.5449268525     3.4063546801     -1.6484228093
C     1.3233510936     3.8901423629     -0.1345932973
C     -0.0897884943     3.4306949172     1.6851404031
C     1.2708237095     3.489025177     1.2950789438
C     -0.5872973315     2.2179959584     2.2843134604
C     -2.6101919455     2.4298142877     0.8495555774
C     -1.9290955096     1.7406629476     1.908266071
C     -2.5636553421     2.0187862996     -1.4693881627
C     -3.2262832224     1.6562145213     -0.1992797382
C     -1.958425042     0.9748477951     -2.2636414853
C     0.1799795448     2.3096340676     -2.2537097839
C     -0.5528034012     1.0806288706     -2.6078345428
C     2.1497140823     2.9635042123     -0.8249479571
C     1.6096863396     2.2172440657     -1.9340131479
C     2.1624872276     2.4219256863     1.4620546057
C     2.8879184939     2.2484732897     0.2033126879
C     0.4119991816     1.2281078984     2.7054697001
C     1.7917490733     1.2761899189     2.2275445268
C     -0.0740324234     -0.0457512193     3.1190526645
C     -2.2829502926     0.3171186914     2.0956578574
C     -1.3730841096     -0.5099834237     2.7943469922
C     -3.5940594375     0.3533424275     0.0071953362
C     -3.1820339782     -0.3389493091     1.1970049968
C     -2.5733134337     -0.3157925379     -2.1260401858
C     -3.5152355408     -0.5545697904     -1.0989429734
C     -1.8438866729     -1.556567192     -2.3588816226
C     0.1839443598     -0.1888505182     -2.8522129446
C     -0.4824040396     -1.5148015467     -2.7182988559
C     2.2826094739     0.9946194618     -2.2272423652
C     1.5828732371     -0.1723701078     -2.7350952587
C     3.4885901867     1.0474593901     -0.0880133031
C     3.3552456414     0.5489887197     -1.4110130087
C     2.5253641724     0.0183583222     1.9525304419
C     3.3571654772     -0.081948162     0.8183168074
C     0.7895326813     -1.1973308225     3.1469562594
C     1.978235652     -1.2240727782     2.4352126604
C     -1.2746155684     -1.9740215288     2.5275463591
C     0.0215134012     -2.3831063833     2.831975673
C     -3.001039215     -1.7439182089     0.815227622
C     -3.2707996702     -1.8614508549     -0.5713148676
C     -2.3538240798     -2.5471659034     -1.4189664329
C     -1.9916087397     -2.5710808357     1.4273062301
C     -1.4905235918     -3.4817324969     -0.8466582197
C     -1.3022062349     -3.5206296937     0.6175586785
C     0.298775272     -2.6786313446     -2.3388074157
C     -0.2304740458     -3.6372329408     -1.4445834592
C     2.3210078292     -1.3534843286     -2.2553443895
C     3.3239412293     -0.8804074457     -1.3420981618
C     3.3464931802     -1.3048647202     0.000405386
C     1.6904767743     -2.5314627093     -1.9775136766
C     2.0218952123     -2.488051907     1.661087072
C     0.7827196332     -3.1913084725     1.921472072
C     0.1055683934     -3.8321039764     0.8690625127
C     0.7598863862     -3.9023600108     -0.3975415139
C     2.6128152005     -2.4857617085     0.3757919449
C     1.9401601024     -3.2124974694     -0.6842394358


