60

 C     -1.7430707135     -0.0421169674     -4.3208811552
C     -0.3635217778     -0.3527334441     -4.3946190057
C     0.3910087472     0.8353174433     -4.2245580829
C     -1.8114172658     1.3021001267     -3.6993244959
C     -0.5379648989     1.8634194652     -3.6930944507
C     -2.5463313855     1.2479471386     -2.4692582014
C     -2.2889507851     -0.904446471     -3.3429698182
C     -3.0071798732     -0.1352373401     -2.3691923885
C     -0.0758555445     -1.4984199857     -3.4853148829
C     -1.3108504748     -1.8565318615     -2.8415701725
C     1.1272534154     -1.5693949949     -2.7761319334
C     1.514831338     0.8077146629     -3.4116988132
C     2.0653807481     -0.4453561982     -2.9369969347
C     0.0294719991     2.355897725     -2.4824119552
C     1.3856287286     1.8669011508     -2.4204637179
C     -2.0674437298     1.8748676802     -1.2663073061
C     -0.7126246069     2.4335621987     -1.2558035668
C     -2.6300459825     1.4117470104     0.
C     -3.2115301284     -0.6921949295     -1.1391756894
C     -3.3192133647     0.1627375559     0.
C     -1.3443099204     -2.2743549873     -1.4670543179
C     -2.4920787157     -1.8800686174     -0.7063427959
C     1.1402880467     -2.2679395731     -1.4634619953
C     -0.107145586     -2.4966610477     -0.7412747994
C     2.3388726051     -2.24473135     -0.7265228181
C     3.0918430908     -0.3038181236     -2.0184256161
C     3.4293212457     -1.386021741     -1.1368007254
C     2.1277279259     1.8520608597     -1.2311215869
C     3.2243768881     0.9230742732     -1.2130760858
C     0.0319016606     2.4943351577     0.
C     1.4786047632     2.2615010885     0.
C     -2.0674437298     1.8748676802     1.2663073061
C     -0.7126246069     2.4335621987     1.2558035668
C     -2.5463313855     1.2479471386     2.4692582014
C     -3.2115301284     -0.6921949295     1.1391756894
C     -2.4920787157     -1.8800686174     0.7063427959
C     -3.0071798732     -0.1352373401     2.3691923885
C     -0.107145586     -2.4966610477     0.7412747994
C     -1.3443099204     -2.2743549873     1.4670543179
C     2.3388726051     -2.24473135     0.7265228181
C     1.1402880467     -2.2679395731     1.4634619953
C     4.1083372581     -0.8977575055     0.
C     3.8389568204     0.5417665111     0.
C     3.4293212457     -1.386021741     1.1368007254
C     2.1277279259     1.8520608597     1.2311215869
C     3.2243768881     0.9230742732     1.2130760858
C     3.0918430908     -0.3038181236     2.0184256161
C     0.0294719991     2.355897725     2.4824119552
C     1.3856287286     1.8669011508     2.4204637179
C     -1.8114172658     1.3021001267     3.6993244959
C     -0.5379648989     1.8634194652     3.6930944507
C     -2.2889507851     -0.904446471     3.3429698182
C     -1.3108504748     -1.8565318615     2.8415701725
C     -1.7430707135     -0.0421169674     4.3208811552
C     1.1272534154     -1.5693949949     2.7761319334
C     2.0653807481     -0.4453561982     2.9369969347
C     1.514831338     0.8077146629     3.4116988132
C     0.3910087472     0.8353174433     4.2245580829
C     -0.0758555445     -1.4984199857     3.4853148829
C     -0.3635217778     -0.3527334441     4.3946190057


