60

 C     1.4994468224     -4.1293095568     0.7504430658
C     1.3405494864     -3.9643741325     -0.6634037093
C     2.1890194553     -2.9048547617     -1.1142506942
C     2.3255480236     -3.0908615175     1.2226751228
C     2.8353364399     -2.3704416617     0.0816174814
C     1.5381594725     -2.3029444392     2.1449438469
C     0.1911713616     -3.9844670706     1.3293020193
C     0.1965715113     -2.8733834178     2.228470156
C     -0.0618862738     -3.9643635447     -0.9980206134
C     -0.7998553326     -4.0601026507     0.2908589497
C     -0.5233380256     -3.073406971     -1.9665427161
C     1.7117608411     -1.9894183031     -2.1024724913
C     0.3617669532     -2.0995678454     -2.562550191
C     2.265538077     -0.6774913473     -2.0930720719
C     3.1345393673     -1.0023924327     0.2011126031
C     3.067515603     -0.2254320293     -0.9947434899
C     1.7356578867     -0.918221677     2.2821537952
C     2.7748856337     -0.302915641     1.4431694572
C     0.6055170459     -0.0986168978     2.7305663763
C     -0.9475897701     -2.0235569935     2.339585613
C     -0.7606455748     -0.5993732298     2.627633853
C     -1.9664271918     -3.3511870623     0.4624123972
C     -2.1093610774     -2.4459005513     1.6032579009
C     -1.8391785532     -2.4438767036     -1.8350678218
C     -2.6011054702     -2.6789812394     -0.6885071397
C     -0.4129598584     -0.9099707274     -2.8368071554
C     -1.7742403022     -1.1155068534     -2.4039116328
C     1.55492833     0.4680912978     -2.6112146504
C     0.1559382156     0.3978358395     -2.8805355823
C     3.0306967522     1.2181466193     -0.9683550065
C     2.1329865828     1.6547449002     -2.038042671
C     2.8802461537     1.0948077054     1.4583481832
C     3.0593522834     1.8902122891     0.2331866822
C     0.8118071958     1.3040573664     2.7811416752
C     2.0080536341     1.8475337643     2.2712268814
C     -0.2436369779     2.2781642887     2.5120894256
C     -1.8061660048     0.3673677256     2.2911657661
C     -1.5206417357     1.809221834     2.1701661576
C     -3.0528870023     -1.4670914031     1.2393923291
C     -3.3596045853     -1.5974273652     -0.1886937483
C     -2.9426762277     -0.1165637379     1.5687439377
C     -2.5334754663     -0.0200160085     -1.895353283
C     -3.3754462779     -0.3198639932     -0.7641023595
C     -3.3720291705     0.6122725022     0.361388452
C     -0.684538721     1.5701291757     -2.6075667423
C     -2.0259413895     1.3462355425     -2.0577655354
C     1.3933639168     2.805048018     -1.9179933241
C     -0.0136323407     2.807763531     -2.3121952206
C     2.3160215486     3.1500280828     0.3725852704
C     1.7211825956     3.1423618876     1.6580109919
C     0.3561702839     3.4526137015     1.8605251581
C     1.5580022563     3.6542968966     -0.7213535936
C     -0.6355441161     3.8002684229     -1.504805864
C     -0.3398352397     4.1172832206     0.8181238669
C     0.30810371     4.2454016135     -0.462273176
C     -2.2585309069     2.6080117268     1.1898447981
C     -3.0158265751     1.893042479     0.1601952836
C     -2.5417364319     2.3364429658     -1.1553904595
C     -1.6849327904     3.7141275696     0.5662430396
C     -1.8561681498     3.5363707     -0.905589893


