60

 C     0.688877775     -4.1574834036     -1.2045663054
C     -0.6665076624     -3.9301019024     -1.036665482
C     -1.0890752764     -2.8100145913     -1.8670047776
C     1.1964691534     -3.1246781639     -2.0808954575
C     0.0871699946     -2.2427327582     -2.4554801364
C     2.2272025788     -2.4806979839     -1.4168114321
C     1.2877249493     -3.9417482083     0.1141291614
C     2.2945795066     -2.9979090175     -0.011511148
C     -1.0014630457     -3.8870328959     0.3831260221
C     0.2518244169     -3.6953468634     1.0957646429
C     -2.1164708966     -3.1644891573     0.7462822531
C     -2.1678570197     -1.9863595275     -1.4618671164
C     -2.8170794046     -2.3093524322     -0.2296881783
C     -2.1838624139     -0.6037025064     -1.9504686033
C     0.2403588821     -0.8133054356     -2.5633415417
C     -0.9536601136     0.0176098994     -2.4602337986
C     2.5410859205     -1.1120899399     -1.6849863836
C     1.5598299053     -0.2377412503     -2.3198030819
C     3.515495913     -0.5968959123     -0.8151965424
C     2.5514207512     -2.0382470444     1.0093711424
C     3.4780931224     -1.047664636     0.6212545378
C     0.3697731563     -2.5926677193     2.0269563367
C     1.5372796473     -1.7369310795     2.0016044565
C     -2.0890388746     -2.4293842239     1.9700647684
C     -0.8522411319     -2.0081532456     2.4988605883
C     -3.4725494936     -1.2602247605     0.5212343324
C     -2.9590008386     -1.2871614557     1.8528523066
C     -3.1882132631     0.2369843071     -1.4042990944
C     -3.7084931408     -0.0344796994     -0.0551677568
C     -3.0967211341     1.6198009077     -1.5486357312
C     -0.8063224617     1.4785267696     -2.4441733264
C     -1.9641870932     2.267645614     -2.1020439575
C     1.7114728688     1.1957539166     -2.1385792683
C     0.5272804803     2.0576705929     -2.2071247713
C     3.8045565329     0.7751264034     -0.8230893085
C     2.8753082468     1.6752699128     -1.4367501456
C     3.6488228347     0.0879535773     1.3976403641
C     4.0557752046     1.1891349306     0.54534319
C     1.432815436     -0.3290792348     2.4419996204
C     2.5209202375     0.5275518931     2.1940729214
C     -0.9807804542     -0.5674473758     2.7449782222
C     -2.3219126493     -0.1410204953     2.3689289675
C     0.1073275408     0.2974719121     2.6296373762
C     -3.5077588445     1.1767640835     0.7117151165
C     -3.4122296564     2.2319978977     -0.2436723666
C     -2.5762054347     1.1458889337     1.8145610501
C     -1.8245756931     3.4825547258     -1.3196479047
C     -2.5994346758     3.3101442717     -0.0554642286
C     0.5897043742     3.3039238569     -1.4889863962
C     -0.5864213411     3.9202350947     -0.986445837
C     2.7182414972     2.7524187406     -0.4591402945
C     3.2622879507     2.2883111349     0.8111205731
C     2.2889298077     1.9207365041     1.841991848
C     1.5584386605     3.4408177091     -0.4259886159
C     -0.1535876469     1.7128691121     2.255516961
C     -1.5035434763     2.1487321601     1.880404264
C     -1.6445813345     3.3209312904     1.0368631405
C     -0.4779509644     3.9344434543     0.5083202352
C     0.996526072     2.4991313076     1.8284617239
C     0.7961323185     3.5477423058     0.8446726659


