60

 C     -0.2516111403     4.5059988222     -0.968949379
C     -1.5590978337     4.0139238401     -0.5340139388
C     -1.5256522293     3.838353627     0.8435144493
C     0.6640730899     4.3740303657     0.1606067916
C     -0.0879568752     4.0157903006     1.2712948223
C     1.7363412918     3.4668864309     -0.1866737733
C     0.1922097133     3.5888780318     -1.9138302255
C     1.4836389317     3.0470877664     -1.5462032653
C     -1.9427180977     2.8680175735     -1.3333146441
C     -0.8427094024     2.6222471246     -2.2458122009
C     -2.601260627     1.748199316     -0.7492714822
C     -2.0177207967     2.6701539395     1.4575026066
C     -2.6828591335     1.6467776201     0.7070029295
C     0.247370554     2.9329229946     2.1340643884
C     -1.0001435644     2.2383063085     2.4033759062
C     2.2237799427     2.4828324262     0.7533929166
C     1.4389335599     2.1597054366     1.9629462201
C     2.9854032847     1.4529436528     0.180127578
C     1.8707422775     1.7756671131     -2.0052321906
C     2.9024341496     1.171193686     -1.2292304318
C     -0.506622035     1.3148060688     -2.6521265216
C     0.9014108129     0.88811511     -2.6510226248
C     -2.6029145514     0.5278511455     -1.5351854017
C     -1.5589201695     0.3207490378     -2.5334577594
C     -3.1839454633     -0.6264732816     -0.9240293277
C     -2.765104957     0.3173513304     1.3140638915
C     -3.1394738912     -0.7709327342     0.4993923229
C     -0.9720567182     0.9511770721     2.8747215564
C     -1.9542026201     -0.0031303416     2.4495931866
C     1.473736035     0.7931333867     2.5069606941
C     0.2806413659     0.2752662587     3.0880974198
C     3.2464101128     0.1780018938     0.8728756974
C     2.4497720701     -0.1962719729     2.0114337151
C     3.2279691669     -0.1910795685     -1.3969420344
C     3.5706874142     -0.7743875525     -0.1003566859
C     1.1964105712     -0.5355737032     -2.702398758
C     2.3905170535     -1.0662103342     -2.069964099
C     -1.2251991668     -1.0143784461     -2.8972351914
C     0.1323567857     -1.4465571886     -2.866189756
C     -2.9563580644     -1.9281124332     -1.4622606628
C     -2.0103885472     -2.1160487583     -2.4365755274
C     -2.7425591079     -2.1657083386     0.8195929539
C     -2.7085385808     -2.8910935007     -0.3720248731
C     -1.3986811418     -1.3175715073     2.6686857278
C     -0.0284283692     -1.1268848262     3.1044965182
C     -1.7682384613     -2.4311509877     1.8597427472
C     2.2035328729     -1.5918879891     2.1776664438
C     0.9447829089     -2.0700706898     2.7712531253
C     3.0905731618     -2.1024940394     -0.0605437737
C     2.3636499628     -2.3417683867     -1.3003202503
C     2.5588212346     -2.5641454731     1.1518771578
C     0.1759590763     -2.8134429101     -2.2618662937
C     -1.1256904554     -3.2252862763     -2.0372477549
C     -1.5556674258     -3.6843337907     -0.7233241625
C     1.2330076531     -3.1697533153     -1.3267990215
C     -0.7681349954     -3.4276624663     1.591870602
C     0.5464119993     -3.2600666777     2.1329560778
C     1.52105319     -3.5428699925     1.0989655361
C     -0.5987087853     -3.9562267098     0.2467428385
C     0.8289328639     -3.8347936878     -0.0924148096


