60

 C     -0.7598564569     -4.4602400225     0.
C     0.0226147438     -4.0684193867     -1.1310691329
C     -0.7147385699     -3.1686793381     -1.9520009123
C     -1.9348397373     -3.6521950935     0.
C     -1.9292490044     -2.8634455621     -1.200659236
C     -1.9292490044     -2.8634455621     1.200659236
C     0.0226147438     -4.0684193867     1.1310691329
C     -0.7147385699     -3.1686793381     1.9520009123
C     1.3798890472     -3.7238019962     -0.7294335522
C     1.3798890472     -3.7238019962     0.7294335522
C     2.0230172432     -2.6921556976     -1.4113937775
C     -0.0450356919     -2.1334981983     -2.6744965133
C     1.353390663     -1.9521589404     -2.4592839253
C     -0.8114895009     -0.9653793021     -2.9886316532
C     -2.5076859915     -1.5510063373     -1.2466733691
C     -2.075056909     -0.7162309968     -2.3005061817
C     -2.5076859915     -1.5510063373     1.2466733691
C     -2.9531875389     -0.9170354217     0.
C     -2.075056909     -0.7162309968     2.3005061817
C     -0.0450356919     -2.1334981983     2.6744965133
C     -0.8114895009     -0.9653793021     2.9886316532
C     2.0230172432     -2.6921556976     1.4113937775
C     1.353390663     -1.9521589404     2.4592839253
C     2.8435866435     -1.7278131359     -0.6901898581
C     2.8435866435     -1.7278131359     0.6901898581
C     1.9122999086     -0.6153483184     -2.5021332068
C     2.8152124996     -0.4563840952     -1.4014890023
C     -0.2176506528     0.2906039783     -3.2698976702
C     1.1776239102     0.5000783463     -2.9985097838
C     -2.2994465495     0.7025391619     -2.2842874271
C     -1.1869368571     1.3409693989     -2.9432826141
C     -3.1534400959     0.4847713616     0.
C     -2.8668240109     1.2996704094     -1.1598838019
C     -2.2994465495     0.7025391619     2.2842874271
C     -2.8668240109     1.2996704094     1.1598838019
C     -0.2176506528     0.2906039783     3.2698976702
C     -1.1869368571     1.3409693989     2.9432826141
C     1.9122999086     -0.6153483184     2.5021332068
C     2.8152124996     -0.4563840952     1.4014890023
C     1.1776239102     0.5000783463     2.9985097838
C     2.9626911791     0.7922340313     -0.7359496465
C     2.9626911791     0.7922340313     0.7359496465
C     1.5855774967     1.7892740084     -2.5429159033
C     2.4461891105     1.9332747045     -1.4192885294
C     -0.781629013     2.6117339836     -2.5639500068
C     0.6226484085     2.8809714714     -2.4859540568
C     -2.4220556303     2.6204960537     -0.7257692522
C     -2.4220556303     2.6204960537     0.7257692522
C     -1.4158558251     3.2890103651     -1.4246145118
C     -0.781629013     2.6117339836     2.5639500068
C     -1.4158558251     3.2890103651     1.4246145118
C     1.5855774967     1.7892740084     2.5429159033
C     2.4461891105     1.9332747045     1.4192885294
C     0.6226484085     2.8809714714     2.4859540568
C     2.0078712099     3.1417233729     -0.6895968511
C     0.8864464622     3.7217953618     -1.3925915328
C     -0.3647422541     3.9922961932     -0.6981057992
C     -0.3647422541     3.9922961932     0.6981057992
C     2.0078712099     3.1417233729     0.6895968511
C     0.8864464622     3.7217953618     1.3925915328


