60

 C     1.8566223585     3.8796350592     0.221447674
C     2.8536818358     2.9202604226     -0.1175173286
C     2.4495363731     2.328007662     -1.3459463114
C     0.8702639826     3.9822145326     -0.8008924317
C     1.179814959     2.9689399315     -1.7576249539
C     -0.4142851276     3.9346957083     -0.138031786
C     1.2309027262     3.488396691     1.4374951145
C     -0.1830143523     3.5174727653     1.2648252363
C     3.0273333009     2.0566786258     1.0195390035
C     1.9145085942     2.3166913903     1.9425987566
C     3.3883033647     0.7619095642     0.7763538339
C     2.6682632522     0.9497486763     -1.5886772212
C     3.4068341329     0.245577682     -0.5818775603
C     1.684834455     0.1784797817     -2.3774558738
C     0.1360140743     2.187144672     -2.3490663552
C     0.3489970443     0.7714977316     -2.6549155472
C     -1.4595059859     3.394520078     -0.8227645099
C     -1.2039785295     2.6488839488     -2.0629222059
C     -2.5323383531     2.7182970896     -0.1038194941
C     -0.9866631331     2.5138705771     1.8496054099
C     -2.3082142018     2.2509339347     1.2456295965
C     1.1700115779     1.2470731616     2.4686541835
C     -0.29273581     1.4216552171     2.5768013589
C     2.9010424315     -0.3154495158     1.6091412744
C     1.7454541739     -0.1239091489     2.3928812954
C     3.3850837304     -1.1776471374     -0.5030526577
C     3.1331136623     -1.5528823785     0.8870786643
C     1.836742114     -1.2109562422     -2.4016282491
C     2.7934484557     -1.9088054672     -1.5377427815
C     0.6819819597     -2.1084851601     -2.551226289
C     -0.7993498327     -0.1182557416     -2.7556617036
C     -0.6439389538     -1.5618676254     -2.5757006299
C     -2.2753696495     1.7692924604     -2.1875100128
C     -3.1882473848     1.8929271498     -1.033174255
C     -2.1126608846     0.4116592993     -2.5024510132
C     -3.6467795733     0.6046819474     -0.7013417804
C     -3.0738858278     -0.327334742     -1.6894854724
C     -3.0025499082     1.071674975     1.6199461515
C     -3.6819878646     0.2250694406     0.6449519984
C     -1.0587757926     0.2953642944     2.9318797764
C     -2.4261658149     0.2026817197     2.6028876722
C     0.8826502753     -1.2973619128     2.5910782871
C     -0.4885406286     -1.072771708     2.8724781088
C     2.4033879181     -2.6986459474     1.1749630586
C     1.2181327406     -2.5524083469     2.0052373341
C     2.2402140097     -3.1809892817     -1.2208476264
C     0.9494015328     -3.3220778366     -1.9029078733
C     2.0850274139     -3.5980411826     0.1043792709
C     0.1729775605     -3.4104091071     1.4437181581
C     0.0013433156     -3.8804011173     -0.9784952663
C     0.6968984716     -4.0057675363     0.2743099135
C     -1.6508170118     -2.3003329003     -1.8863114338
C     -2.8092789234     -1.6292384602     -1.3378441262
C     -1.2895750673     -3.3515137236     -0.9610322056
C     -3.4050912536     -1.1636953578     1.0052795749
C     -2.6853716835     -1.1543345821     2.2293593775
C     -1.5168823452     -1.9556413537     2.4178435788
C     -1.2040938389     -3.013179789     1.500120265
C     -2.9987224873     -2.0866914597     0.0260297069
C     -1.9740012777     -3.0768417274     0.2914112212


