60

 C     0.8800455947     4.3696486748     1.283545709
C     1.3348679284     4.3737195689     -0.0986981362
C     0.1875938843     4.5261883986     -0.9126705244
C     -0.5788432622     4.206072944     1.2712484966
C     -1.027410519     4.3703834348     -0.0190964788
C     -0.9208524993     2.9688352167     1.9770059974
C     1.3927645471     3.235375036     1.8960713844
C     0.3224939726     2.4027330931     2.4166535997
C     2.1666813427     3.214500637     -0.3087763473
C     2.3131985183     2.5653284346     0.9974794275
C     1.9700767762     2.3492677186     -1.4477598404
C     -0.0187392254     3.6932768033     -2.0009930727
C     0.8656466469     2.6186908444     -2.3264348059
C     -1.9081405422     3.3963604684     -0.6159065162
C     -1.3669136331     3.1015952235     -1.890188784
C     -1.9164367988     2.0773661495     1.4896528588
C     -2.4363109668     2.2951904689     0.1390707245
C     -1.9045027765     0.7267052375     2.0471559214
C     0.509773542     1.0057805447     2.5668371631
C     -0.6871097743     0.1917478846     2.6568521608
C     2.5126321699     1.2024891252     1.1194476604
C     1.7391273332     0.4119608293     2.1101512384
C     2.4137479834     0.9775950633     -1.3450583443
C     2.9081769699     0.4929814789     -0.0819228013
C     1.8472921594     -0.0576804543     -2.2182296642
C     0.0324382106     1.4827384039     -2.7067658296
C     -1.3395321398     1.7938939387     -2.402597481
C     0.4784081123     0.1474677196     -2.6625186647
C     -2.8221354045     1.1112445856     -0.5986581577
C     -2.1808229633     0.7952844711     -1.8647606918
C     -2.8324074447     -0.1956646212     1.5308644685
C     -3.2978365642     0.012588781     0.1612990865
C     -2.7214092347     -1.6207667625     1.7528022775
C     -0.5251124593     -1.2051474947     2.7596842351
C     -1.555819336     -2.1341894463     2.3458811202
C     1.8726582327     -1.0197645773     2.1321935318
C     0.7678575823     -1.8161477469     2.562286586
C     3.2640060074     -0.8605245174     0.0588269725
C     2.8380419138     -1.634111207     1.2546949103
C     2.3023777337     -1.3767427645     -2.0817989765
C     3.2664812171     -1.7110078541     -1.0572301866
C     1.3763310161     -2.4867680442     -2.161497766
C     -0.5051960893     -0.9287051627     -2.5689868365
C     -1.8723578056     -0.5846289692     -2.2016951362
C     -0.0096268014     -2.2871507931     -2.3178553701
C     -3.4544638869     -1.2392568831     -0.4411763657
C     -3.226678689     -2.2798776906     0.5783897918
C     -2.7022847113     -1.5800598793     -1.6045541732
C     -0.8867711634     -3.2496357778     -1.652524495
C     -2.5375323325     -3.3257904955     0.0045059576
C     -2.1930793822     -2.9031334417     -1.3788930261
C     -0.8935561213     -3.3095486001     1.8086708556
C     0.5430923924     -3.1389903868     2.0112566289
C     -1.3560357712     -3.8620968415     0.596453149
C     -0.3871130732     -4.0362637255     -0.4878139719
C     2.6869582196     -2.9665938332     0.8507355067
C     2.9991894073     -3.0389526638     -0.5858880289
C     1.8626024998     -3.512222646     -1.2147655335
C     1.4566396919     -3.6738985361     1.1008781529
C     0.9538291653     -4.081689262     -0.2248791661


