60

 C     -0.3297304992     5.0687982485     -0.2890425945
C     -1.5232593958     4.6166345902     0.1868940514
C     -1.3130866567     3.8868315534     1.4563817446
C     0.7170287458     4.6406827326     0.6486038118
C     0.1096994161     3.8408305627     1.7232023543
C     1.7298096509     4.0758920088     -0.1204617844
C     -0.0715904442     4.3752781663     -1.5897322067
C     1.2172474611     3.8815548362     -1.5341664465
C     -2.0816197793     3.6529223628     -0.7636980287
C     -1.1481044111     3.4396504986     -1.8517537013
C     -2.0153267755     2.6875155323     1.3799262497
C     -2.5371233101     2.5569578541     -0.0280575681
C     -1.532283002     1.5083794148     2.0062134003
C     0.6966149332     2.6022121422     2.1147785515
C     -0.1710177269     1.4675500072     2.4756486702
C     2.3470917509     2.8830258964     0.2586440075
C     1.9713554803     2.2187435246     1.4881446121
C     1.5347806894     2.5532380307     -1.9061685456
C     2.4848527431     2.0433275641     -0.930786397
C     -0.854488931     2.0871099446     -2.2355533443
C     0.5323149585     1.638119416     -2.3830548425
C     -2.5376014067     1.2866992106     -0.6023263073
C     -1.7615784704     1.0454982838     -1.8010519501
C     -2.2185594946     0.2770826017     1.6529943428
C     -2.7989145113     0.1912048425     0.3130498097
C     -1.801213115     -0.9233681317     2.2341652365
C     0.3965255183     0.1433113929     2.736790386
C     -0.4512262762     -1.0039297313     2.7568934377
C     2.412424504     0.8977862619     1.5887563463
C     1.7567111638     -0.1041540985     2.3968328963
C     2.766499185     0.7010047059     -0.833877931
C     3.0558893251     0.2079131381     0.4886902981
C     0.8616159762     0.2241428876     -2.3806872879
C     2.1280312677     -0.2112577929     -1.7840577222
C     -1.508500391     -0.3252889706     -2.1448369529
C     -0.179660975     -0.7772721396     -2.5268232811
C     -3.003591656     -1.0449281852     -0.2625936642
C     -2.4269124241     -1.2852929018     -1.607526408
C     -2.175457007     -2.214705904     1.7091960801
C     -2.8815018365     -2.2684140421     0.4852286821
C     0.0216514217     -2.3381558771     2.4949753802
C     -1.0805431556     -3.1315582544     1.9511123849
C     2.1886186415     -1.3916047108     1.9589305065
C     3.0103754693     -1.1632960345     0.751418915
C     1.3704465703     -2.5487664265     2.0403278515
C     2.3600663572     -1.5701893317     -1.5972241417
C     2.9326878443     -2.0669632366     -0.3178852832
C     0.1381255746     -2.2115109361     -2.4865364167
C     1.4698119253     -2.5877333319     -2.0853725161
C     -2.1724033319     -2.6405562365     -1.7204079857
C     -2.5590480975     -3.3053049176     -0.4492203806
C     -0.9205337462     -3.1570564018     -2.1793657357
C     -0.8083955501     -4.1771109497     1.0403902379
C     -1.6026838008     -4.2501363682     -0.1743381483
C     -0.6557109818     -4.2904891859     -1.3260211313
C     1.6167051817     -3.6309861272     1.0819846958
C     2.4462057586     -3.3522065842     -0.0983922536
C     1.6877083215     -3.7492658788     -1.2602415645
C     0.5543361392     -4.4499671859     0.6696255693
C     0.6064357853     -4.5284284392     -0.8185384885


