60

 C     0.6431120239     4.2893334552     -0.7281100118
C     0.7556263137     3.5896639374     -1.9140248351
C     1.9419301887     2.7335587507     -1.8539040616
C     1.7855844299     3.8781000546     0.1262767981
C     2.5078362594     2.8208440096     -0.5430079639
C     1.283983075     3.6289787828     1.3812150635
C     -0.5735908939     4.1949463674     0.0569735211
C     -0.1815049931     3.868200423     1.3913359841
C     -1.6674299447     3.4861402     -0.4739989062
C     -0.3296707682     2.7959057684     -2.440570105
C     -1.555529588     2.8296621396     -1.7820817136
C     1.612001357     1.4913264379     -2.4137671391
C     0.2172224114     1.4940523203     -2.8241518593
C     2.2079822789     0.3083658917     -1.9235201871
C     2.8385813766     1.6082909989     0.1349311823
C     2.9410428516     0.4100404589     -0.6753451963
C     1.5670032263     2.4231100718     2.0914681191
C     2.4027954407     1.4211204036     1.5334570508
C     -0.7800897761     2.8335697217     2.1173092372
C     0.302469616     2.0197221562     2.6959426985
C     -2.4301540895     2.5844167844     0.3592839021
C     -1.9679631944     2.1649571272     1.6425389956
C     -2.3711665597     1.6405860463     -1.7742754473
C     -3.0536787139     1.6017477732     -0.5091102721
C     -0.53518935     0.3043110052     -2.788550731
C     -1.9412048974     0.4152689192     -2.3885126014
C     1.5871707764     -0.949529547     -2.307704201
C     0.1815220878     -0.9748952372     -2.6449192792
C     2.2181141505     -2.1417378693     -1.8017296488
C     3.2367772741     -0.8107477758     -0.0060600237
C     3.1013571024     -2.0231101894     -0.6714334022
C     2.2544703969     0.0567013687     2.0711344136
C     2.8410870406     -1.0156062815     1.3808033123
C     0.0774865295     0.7190442038     3.043720949
C     1.1149473878     -0.2675328692     2.8727946751
C     -2.2190088656     0.7665351307     2.0855680303
C     -1.2115776906     0.0899253681     2.8499819488
C     -3.5011065858     0.3939912882     -0.0046303133
C     -3.0857191575     -0.061681323     1.32832639
C     -2.6135778903     -0.764285418     -1.9735884936
C     -3.4830405486     -0.7226251572     -0.8606552391
C     -0.5885712098     -2.1952295706     -2.3307060728
C     -1.9353681653     -2.0566387298     -1.9445583927
C     1.5053537006     -3.3501026133     -1.6630460908
C     0.1104308043     -3.378813875     -1.8156236193
C     2.7321013741     -3.0583030857     0.3041914466
C     2.382650349     -2.3908969718     1.5181261424
C     1.8349024906     -3.9168594398     -0.3135533347
C     0.4775915428     -1.5404707409     2.7789214928
C     -0.9619581063     -1.307570221     2.7291720737
C     1.091774982     -2.6544175547     2.1267510464
C     -2.9056215941     -1.4936815746     1.2627684141
C     -3.2508334107     -1.9124316074     -0.0643793092
C     -2.4404817505     -2.7947183327     -0.7728899703
C     -1.8025203454     -2.1527336364     1.9331802263
C     -0.4323785226     -4.1175954305     -0.6910631483
C     0.62943199     -4.2677203018     0.3008323451
C     0.211170682     -3.6141112326     1.4994335808
C     -1.5663821154     -3.6375516852     -0.0478210924
C     -1.2101929833     -3.2908188934     1.3308538225


