60

 C     -3.6505169324     -1.4833071597     1.9225780917
C     -3.7836303015     -1.838936895     0.5715267608
C     -2.5727360194     -2.5268658256     0.1734143699
C     -2.3683906473     -1.9003585745     2.3960519622
C     -1.7123699017     -2.6406981618     1.3579930493
C     -1.6915126024     -0.7539486256     2.8644727055
C     -3.7564672055     -0.0400879773     2.006465219
C     -2.5421728956     0.4372568786     2.5472818178
C     -4.2609680992     -0.6891353651     -0.1755199804
C     -4.2452210896     0.4639907234     0.7473703686
C     -3.7933800417     -0.5336408894     -1.4837610352
C     -1.9743252353     -2.2508426788     -1.0840880762
C     -2.6373571584     -1.3060912704     -1.9343891757
C     -0.531822006     -2.4587092143     -1.2471690383
C     -0.3222259447     -2.5797049588     1.2302189881
C     0.257012275     -2.7864882849     -0.0848765069
C     -0.2989559384     -0.6726510465     2.7890833289
C     0.4474495185     -1.7229093654     2.1441218694
C     0.2989559384     0.6726510465     2.7890833289
C     -1.8934084933     1.585229136     1.9851949468
C     -0.4474495185     1.7229093654     2.1441218694
C     -3.7204307433     1.6873116423     0.2904596368
C     -2.5361434299     2.2467001165     0.9080794556
C     -3.6118020185     0.8025244272     -1.9962124707
C     -3.5686652564     1.8804855856     -1.1332278361
C     -1.8176858524     -0.4487652758     -2.7728447652
C     -2.3857640707     0.8335674295     -2.8023659327
C     0.1775324683     -1.8196291465     -2.3530406771
C     -0.4060629826     -0.6023801113     -2.8752165844
C     1.5846841856     -1.9566936706     -2.4332929079
C     1.687353031     -2.7913548858     -0.1673849997
C     2.3196918336     -2.6121943486     -1.3909225838
C     1.8934084933     -1.585229136     1.9851949468
C     2.5361434299     -2.2467001165     0.9080794556
C     1.6915126024     0.7539486256     2.8644727055
C     2.5421728956     -0.4372568786     2.5472818178
C     2.3683906473     1.9003585745     2.3960519622
C     0.3222259447     2.5797049588     1.2302189881
C     1.7123699017     2.6406981618     1.3579930493
C     -1.687353031     2.7913548858     -0.1673849997
C     -2.3196918336     2.6121943486     -1.3909225838
C     -1.5846841856     1.9566936706     -2.4332929079
C     -0.257012275     2.7864882849     -0.0848765069
C     0.4060629826     0.6023801113     -2.8752165844
C     -0.1775324683     1.8196291465     -2.3530406771
C     0.531822006     2.4587092143     -1.2471690383
C     2.3857640707     -0.8335674295     -2.8023659327
C     1.8176858524     0.4487652758     -2.7728447652
C     3.5686652564     -1.8804855856     -1.1332278361
C     3.7204307433     -1.6873116423     0.2904596368
C     3.6118020185     -0.8025244272     -1.9962124707
C     3.7564672055     0.0400879773     2.006465219
C     3.6505169324     1.4833071597     1.9225780917
C     4.2452210896     -0.4639907234     0.7473703686
C     2.5727360194     2.5268658256     0.1734143699
C     1.9743252353     2.2508426788     -1.0840880762
C     2.6373571584     1.3060912704     -1.9343891757
C     3.7933800417     0.5336408894     -1.4837610352
C     3.7836303015     1.838936895     0.5715267608
C     4.2609680992     0.6891353651     -0.1755199804


