60

 C     -0.8322665877     -4.3562946066     -0.3905056398
C     -1.0712026409     -4.0252602198     0.9243399699
C     0.2113076615     -3.7884814931     1.6117963102
C     0.6455596286     -4.2920769034     -0.575584883
C     1.2657564523     -3.830181074     0.6557447487
C     0.8742805112     -3.6180866162     -1.7462549438
C     -1.4624926265     -3.5953512306     -1.4571146824
C     -0.4190373049     -3.2092515651     -2.3526222417
C     -2.4183770138     -2.6211437892     -1.1249941852
C     -1.9788603625     -2.9633010508     1.2977972578
C     -2.710529222     -2.3456902209     0.2841915335
C     0.034836192     -2.6880039498     2.4664108645
C     -1.3111614581     -2.1366154607     2.3077138155
C     1.1002793375     -1.7997295805     2.6270663226
C     2.2320218127     -2.7600627337     0.6223977801
C     2.2466621729     -1.879278822     1.7511009677
C     1.7888615333     -2.5214415937     -1.8261770812
C     2.5608589947     -2.1383530213     -0.6813720901
C     -0.2716057992     -1.8944166386     -2.8008678954
C     1.1331537301     -1.5057747509     -2.6017267059
C     -2.3906262048     -1.3299026168     -1.775497061
C     -1.2951391204     -0.9047500417     -2.5774098399
C     -3.016951342     -0.951048857     0.4229004609
C     -2.9714624726     -0.3520948136     -0.8768627882
C     -1.5368442196     -0.7515400724     2.420370231
C     -2.5660723237     -0.1842249459     1.5426432109
C     0.8547365818     -0.4271618975     2.9653651942
C     -0.4411818406     0.1395421901     2.8688697571
C     2.81482747     -0.5524897393     1.7020141525
C     2.0158847744     0.3273270328     2.5444153377
C     3.0502868683     -0.8058261216     -0.7073427305
C     3.3053123157     -0.0438192308     0.5060208066
C     1.488994734     -0.15676598     -2.5218814566
C     2.6187073771     0.1404292254     -1.6971119434
C     -0.9409132969     0.5174388571     -2.6253078735
C     0.4622614758     0.8735448749     -2.7411895437
C     -2.8149323338     1.0271240025     -1.0531853695
C     -1.8735126978     1.5090463512     -2.0786623861
C     -2.6589059728     1.2051954569     1.3946436223
C     -2.9969305078     1.8051011831     0.1391495155
C     -0.5374225825     1.5895789205     2.6657790218
C     -1.750197627     2.1283930195     2.1033645463
C     1.9157704014     1.674892062     2.2745238763
C     0.6475581418     2.3597546726     2.4360047264
C     3.1847700347     1.3690605253     0.2128909914
C     2.815618087     1.4760207692     -1.1846083403
C     2.5910302335     2.2459619425     1.1259128681
C     0.8541318562     2.2197110083     -2.4832374313
C     2.0183338894     2.5124125315     -1.6205363781
C     -1.4639573699     2.8692944329     -1.9980512701
C     -0.1098901641     3.2047927169     -2.2535878441
C     -2.5342097526     3.1514711218     0.1894728218
C     -1.7585634824     3.3529557813     1.4344823821
C     -1.8652541011     3.7097633267     -0.8654373197
C     0.657566596     3.5306907787     1.5721772975
C     1.8073090316     3.3753714863     0.6710268483
C     1.6389544884     3.5837416933     -0.7114585181
C     0.3779090623     4.0952002367     -1.1772253834
C     -0.5534490303     4.0503307245     1.0893441945
C     -0.6615920877     4.3842728133     -0.3241176076


