60

 C     4.2083349663     -0.5078661645     -0.4374887509
C     4.0775105949     0.9302881855     -0.3798931714
C     3.4573692962     1.3751921701     -1.5683378324
C     3.6514600974     -0.9665020281     -1.6499334258
C     3.2544906964     0.2080411974     -2.4038798097
C     2.6379149125     -1.9500436497     -1.3120701308
C     3.7070379188     -1.3013828693     0.6484044732
C     2.6805686175     -2.1912053037     0.1116935789
C     3.4638045773     -0.6677381178     1.8630286268
C     3.4097820046     1.5368137696     0.7403320938
C     3.2483384487     0.809086469     1.8947852635
C     2.3119007191     2.1901772174     -1.2170594319
C     2.2687085431     2.3263066803     0.2102955839
C     1.1063700447     2.1468873708     -1.9744048859
C     2.100898439     0.1432334231     -3.1209847818
C     1.1388062678     1.2564723669     -3.1140294237
C     1.4088256969     -2.0102519893     -2.0132560882
C     1.2980626764     -1.0966266009     -3.1326845541
C     0.1705774011     -2.4073487608     -1.3183526929
C     1.4799398749     -2.4756751761     0.8315853149
C     0.2014880346     -2.5969548509     0.1284459908
C     2.4772383734     -1.2136937724     2.696160501
C     1.4729896285     -2.0842533714     2.2217188161
C     2.1008688249     1.070704391     2.7385553202
C     1.7935257878     -0.1350688812     3.4138397417
C     1.0461984472     2.4511365774     0.8983502025
C     1.0160576705     1.928802311     2.2869316771
C     -0.1705774011     2.4073487608     -1.3183526929
C     -0.2014880346     2.5969548509     0.1284459908
C     -1.4088256969     2.0102519893     -2.0132560882
C     -0.0504085509     0.7457907423     -3.616935717
C     0.0504085509     -0.7457907423     -3.616935717
C     -1.2980626764     1.0966266009     -3.1326845541
C     -1.1063700447     -2.1468873708     -1.9744048859
C     -1.1388062678     -1.2564723669     -3.1140294237
C     -2.100898439     -0.1432334231     -3.1209847818
C     -2.3119007191     -2.1901772174     -1.2170594319
C     -1.0461984472     -2.4511365774     0.8983502025
C     -2.2687085431     -2.3263066803     0.2102955839
C     0.2276655251     -1.7193960443     2.8956809287
C     0.4809948024     -0.5116740623     3.6795024834
C     -1.0160576705     -1.928802311     2.2869316771
C     -0.2276655251     1.7193960443     2.8956809287
C     -0.4809948024     0.5116740623     3.6795024834
C     -1.4799398749     2.4756751761     0.8315853149
C     -1.4729896285     2.0842533714     2.2217188161
C     -2.6379149125     1.9500436497     -1.3120701308
C     -2.6805686175     2.1912053037     0.1116935789
C     -3.2544906964     -0.2080411974     -2.4038798097
C     -3.4573692962     -1.3751921701     -1.5683378324
C     -3.6514600974     0.9665020281     -1.6499334258
C     -3.4097820046     -1.5368137696     0.7403320938
C     -3.7070379188     1.3013828693     0.6484044732
C     -4.0775105949     -0.9302881855     -0.3798931714
C     -4.2083349663     0.5078661645     -0.4374887509
C     -2.1008688249     -1.070704391     2.7385553202
C     -1.7935257878     0.1350688812     3.4138397417
C     -2.4772383734     1.2136937724     2.696160501
C     -3.2483384487     -0.809086469     1.8947852635
C     -3.4638045773     0.6677381178     1.8630286268


