60

 C     0.3026574346     4.5951834861     -0.4213014529
C     -1.0106602195     4.3767469803     0.0009809863
C     -1.7069772951     3.6628841937     -1.0576710309
C     0.495654714     3.7968863979     -1.6690046096
C     -0.7164892896     3.1987410447     -2.0265192798
C     1.6631742033     2.9842322763     -1.5153113236
C     1.3720281183     4.3067948082     0.4451478714
C     2.2523997402     3.3391934344     -0.2596112805
C     1.1409461566     3.7909470355     1.7252439472
C     -1.2761657175     3.6805170923     1.2527170679
C     -0.1896414515     3.3678356462     2.1023605766
C     -2.5399095113     2.7121036782     -0.4742135017
C     -2.2574117692     2.653672169     0.9779868061
C     -2.7918349685     1.5251901135     -1.1694246749
C     -0.7319472042     1.8181530323     -2.4926033905
C     -1.9211050709     1.0900831705     -2.2595998535
C     1.6892653084     1.6232681129     -1.9386972451
C     0.4985009354     1.0383577745     -2.5625343708
C     2.5566252064     0.7312733111     -1.1912148149
C     2.7052622399     2.354535268     0.6501805717
C     2.0203167642     2.6298787423     1.8901360421
C     2.8570700364     1.0236162683     0.2076248604
C     -0.0867885747     2.0089333345     2.6155672975
C     1.324225329     1.5870461706     2.4880172379
C     -2.2410936717     1.3888085858     1.5974631262
C     -1.0858047045     1.0444828341     2.4438443233
C     -3.209294016     0.3749156644     -0.4674023259
C     -2.9490843657     0.2847653791     0.9454868204
C     -1.9892591888     -0.340665038     -2.3216760163
C     -2.9321609585     -0.7698683241     -1.3187727979
C     0.4150512763     -0.4022523373     -2.7320901059
C     -0.8487558128     -1.1312133843     -2.5895777181
C     2.5878612036     -0.6040028566     -1.5685983149
C     1.6049322606     -1.1568355498     -2.4969127046
C     3.0007037294     -1.6587476785     -0.6788180084
C     2.6213738473     -0.0556945259     1.1537408829
C     1.6746605804     0.2403296776     2.2070341773
C     2.8118388216     -1.4232838916     0.7331552769
C     -0.7152874192     -0.3702630379     2.642386959
C     0.7144637314     -0.7761205314     2.5934268337
C     -2.7967561857     -1.017800726     1.4718965063
C     -1.6748367938     -1.3505577189     2.3809556592
C     -2.8677685504     -2.0333486354     -0.7771251095
C     -2.9711505486     -2.1439236387     0.6435833797
C     -0.8504789695     -2.5498091635     -2.1299252976
C     -1.8567292289     -2.9755554132     -1.2256612402
C     1.6210501611     -2.5492975393     -2.3527983988
C     2.5608621105     -2.8736414759     -1.2705937974
C     0.4172920304     -3.2727563136     -2.0765892834
C     2.0133878877     -3.8992719938     -0.5015533675
C     0.6887120827     -4.2338419259     -1.0493827674
C     2.2019413835     -2.4617691645     1.5040385704
C     1.0649765767     -2.1079854707     2.3653302666
C     1.8835018592     -3.7145522382     0.8971392169
C     -1.2983582961     -2.7293861441     2.1473376091
C     -2.0992856197     -3.2177234081     1.0581422618
C     -1.5152679478     -3.8347648573     -0.0681547024
C     -0.2054940008     -4.3576832815     0.0510234803
C     0.0452214647     -3.1342534077     2.2047652445
C     0.5298396568     -4.0825062103     1.2666245255


