60

 C     -1.9094593649     3.8029949822     0.8381755173
C     -2.8206348331     2.9477343272     0.1155188636
C     -3.0060277036     1.7789428646     0.8775068756
C     -1.4281149345     3.1001370128     2.0184666031
C     -2.1014475185     1.8694797485     2.0620669807
C     0.0152271385     3.1268809736     2.0027731491
C     -0.8295969943     4.124841943     0.0353069188
C     0.3813653501     3.8781709033     0.7998161328
C     -2.3023165821     2.820552298     -1.2295974144
C     -1.0075345471     3.4856398232     -1.2839665404
C     -2.4347927146     1.6024660737     -1.85720239
C     -3.2003981145     0.5179919885     0.241258902
C     -3.0887943238     0.5051134951     -1.1771711139
C     -2.8752245888     -0.7078851757     0.9833369791
C     -1.4370489115     0.7064535609     2.5246445746
C     -2.010334676     -0.5970082656     2.1697133953
C     0.7534773345     1.9819735108     2.3739278779
C     -0.0142249056     0.829145113     2.840986295
C     2.0861402436     1.7534376916     1.7568091839
C     1.4977452455     3.5116681606     0.1154056054
C     2.4737855738     2.6245780043     0.7119936054
C     0.0904933611     2.8642401307     -1.9091950551
C     1.3926457095     3.1493331914     -1.3278604948
C     -1.3541131886     1.0103618447     -2.6292793023
C     -0.0637208079     1.5512559344     -2.6071521064
C     -2.7112275468     -0.6997005001     -1.8515561705
C     -1.5779481429     -0.4228305179     -2.6863364248
C     -2.8943697695     -1.9305266545     0.2792480864
C     -2.8176736694     -1.9231362951     -1.1896090529
C     -2.1340315026     -3.0941885477     0.7093701593
C     -1.2927742802     -1.7510173068     2.5734316951
C     -1.3028969597     -3.0020551978     1.8136537647
C     0.6951619631     -0.3717508663     3.0687563225
C     0.0162265871     -1.5900196681     3.0875922508
C     2.6767143725     0.3828290177     1.7643810037
C     2.0064703419     -0.6150431553     2.4670692249
C     3.4724513518     -0.0728260812     0.6237244212
C     3.2379928093     2.1088793844     -0.399572887
C     2.464431939     2.3482314314     -1.6261871733
C     3.7248677113     0.8380646535     -0.4423577355
C     1.0703888769     0.6005006668     -2.7327475124
C     2.3512159778     1.0736593762     -2.336293329
C     3.2770198043     0.2056884276     -1.7030732648
C     -0.5225141509     -1.3714126934     -2.8062476458
C     0.842961123     -0.8519142877     -2.703741289
C     -2.018662108     -2.9860741682     -1.6431424977
C     -1.645411305     -3.7808001352     -0.4780512095
C     -0.8261145504     -2.7147887255     -2.3923263625
C     -0.3260288257     -4.1754509052     -0.5928930753
C     0.2040132904     -3.5369690524     -1.7990408616
C     0.0845121326     -3.5171063899     1.7434230999
C     0.8696244577     -2.6391458767     2.5191962562
C     2.0403373321     -2.026647271     2.0476823776
C     0.5970852912     -3.9562486816     0.4909082377
C     3.1959935236     -1.3408861044     0.0266180728
C     2.9463372461     -1.1105223702     -1.4137119451
C     1.8287251909     -1.7126933869     -2.0501699434
C     1.4251691193     -2.967395036     -1.4805766726
C     2.494913017     -2.3535291268     0.7188302118
C     1.7399440054     -3.2816737907     -0.0525330741


