60

 C     -1.5862062122     -4.404134852     0.3029501623
C     -0.5432226035     -4.71088257     -0.5305659292
C     0.7061094356     -4.4140460746     0.1561294341
C     -1.058189478     -3.8495270718     1.5528990539
C     0.3965246642     -3.8494927058     1.4528175738
C     -1.6942946076     -2.6160215928     1.7487324769
C     -2.4197334673     -3.3851510765     -0.3424691402
C     -2.6108303094     -2.3665592534     0.5888500075
C     -0.6270002587     -3.8282534053     -1.7114353553
C     -1.831039328     -3.0244530624     -1.6144619054
C     1.4808857473     -3.6412781574     -0.7409290821
C     0.6147498187     -3.1954611079     -1.8711427695
C     2.363595508     -2.7161648028     -0.2218253441
C     1.126556702     -2.7162204724     1.9215075571
C     2.2920332447     -2.3502592112     1.1748194812
C     -1.0292408847     -1.4851119104     2.32864368
C     0.405572019     -1.5819128342     2.5428897531
C     -1.6638896265     -0.1902869493     2.2024121036
C     -2.8088811673     -1.0473907528     0.1593351936
C     -2.6967255789     -0.0131578179     1.177590715
C     -1.7782824623     -1.6643846015     -1.984949139
C     -2.5615810904     -0.7062547039     -1.2143593136
C     0.7038496811     -1.8376708986     -2.3341015631
C     -0.5398561401     -1.1337550343     -2.5630140098
C     2.7238995959     -1.5320118409     -0.9648757427
C     1.9083709538     -1.0527825738     -2.0307727217
C     2.9149403964     -1.0637857115     1.3019365466
C     3.319013304     -0.6099588827     -0.0257065891
C     1.1080319579     -0.37038258     2.7652480395
C     2.420624622     -0.1291367503     2.1955417222
C     -0.951467897     1.0082610974     2.6271571965
C     0.4517621725     0.8945125134     2.8301834521
C     -1.4550739722     2.2973750847     2.2751643952
C     -3.0859703617     1.264637353     0.7990017398
C     -2.6570730835     2.4099062531     1.5442876988
C     -2.5432498105     0.6964292305     -1.5665581294
C     -3.0657492131     1.6298280808     -0.6378732945
C     -0.4782139615     0.2607483879     -2.8080501199
C     -1.5466428395     1.1487509147     -2.4923257212
C     1.9514220427     0.378114888     -2.3136741488
C     0.7768838217     1.0011552869     -2.8246992313
C     3.4186420463     0.7296313624     -0.3081744223
C     2.8474980393     1.2267245239     -1.5638631651
C     2.5536475908     1.2883261867     1.9243478098
C     1.3634006485     1.9437205256     2.3693014237
C     3.1842051192     1.7200333253     0.7331944629
C     -0.5337490586     3.3747575022     1.8060390748
C     0.8603484153     3.1210898573     1.7239265049
C     -2.4905701145     3.4932838184     0.619531229
C     -2.6523036604     2.9955804561     -0.6990654194
C     -1.2010286787     4.0726049247     0.7574806711
C     -0.9843776475     2.4840702396     -2.3840355278
C     0.4616368125     2.3763663755     -2.5783933435
C     -1.5084141789     3.4038264186     -1.4874077975
C     -0.5940304894     4.1263299429     -0.5630130525
C     2.5188486013     2.574176425     -1.3437299294
C     2.686288402     2.8790546998     0.0869147451
C     1.5553690529     3.5788422856     0.5227502845
C     1.3169639369     3.1676283658     -1.7932209826
C     0.7652137295     3.9401231328     -0.6768912987


