60

 C     0.3740211967     -4.913011703     -0.6547370912
C     1.5647456716     -4.1724625445     -0.728491527
C     1.9934472921     -3.8344419279     0.5965026474
C     -0.1001847456     -4.7700674891     0.7527296434
C     0.8990994436     -4.1441788448     1.5291389388
C     -1.3921510436     -4.2225312696     0.7452594949
C     -0.58560203     -4.2235741213     -1.4652638175
C     -1.7239119447     -3.9440872443     -0.6824110814
C     1.4094723002     -3.0674681902     -1.6984480097
C     0.0477719946     -3.0987604058     -2.1563192488
C     2.0598009091     -1.8328678911     -1.5056978192
C     2.4732749446     -2.5540321504     0.8519005701
C     2.7586662103     -1.6400750073     -0.2272191462
C     0.6235634058     -2.9351162093     2.2357397675
C     1.7234874925     -2.0193552155     1.9777363925
C     -1.6889803143     -3.0308116012     1.456681032
C     -0.6829162426     -2.3289740961     2.245437415
C     -2.3636154551     -2.7073373388     -0.7783780772
C     -2.5038138514     -2.2049112651     0.5820314418
C     -0.6491588914     -1.8746047999     -2.3744259773
C     -1.9824201955     -1.7460773674     -1.7775996036
C     1.5060982341     -0.6433384703     -2.1419640044
C     0.1191783848     -0.6555340438     -2.5567991002
C     2.1506877728     0.6433549093     -1.8947722355
C     3.0014486273     -0.340693406     0.1789873165
C     2.9472642977     0.7704238706     -0.725767337
C     1.6310350489     -0.6402728205     2.2056002821
C     2.5424923979     0.1600139107     1.4611350811
C     -0.8067031092     -0.877318597     2.4232960966
C     0.366549681     -0.0321078607     2.5851935668
C     -2.7372424526     -0.8606541071     0.8472931549
C     -2.0099203323     -0.2183358698     1.9414582958
C     -2.4985776321     -0.4620377533     -1.5779802366
C     -3.0548046591     -0.0536791949     -0.2871661024
C     -0.5985639152     0.6360457245     -2.6511626472
C     -1.9408374319     0.7033591215     -2.1535765613
C     1.5285260063     1.8534822493     -2.3637200401
C     0.1036583945     1.8505988278     -2.6644283936
C     1.8405379279     3.1005968091     -1.8030783336
C     2.915510978     1.9812149951     0.0634740767
C     2.4427259948     1.5745466178     1.3856303769
C     2.4556833706     3.1576258616     -0.5038411046
C     0.2764619353     1.4207774025     2.5760192283
C     1.3838999306     2.2588539014     2.0437561552
C     -2.1153878106     1.1714544102     2.0363813966
C     -1.0309601569     1.9835722805     2.5115069635
C     -3.0748915853     1.3521640113     -0.2283330072
C     -2.4023614337     1.8680891475     -1.4111705848
C     -2.8100879175     1.9756355376     1.0060194677
C     -0.4666265163     3.1036069856     -2.175049372
C     0.6229340903     3.9142927155     -1.7554878203
C     -1.6949796387     3.0931028543     -1.3998457351
C     1.6555952978     4.0222668193     0.3156213454
C     1.1101994533     3.6029005965     1.5562146008
C     0.5627822683     4.5736500496     -0.5075639512
C     -1.2613794639     3.3276325948     2.0349441697
C     -2.3129506968     3.2830207764     1.0197329294
C     -1.7593914763     3.8923809809     -0.1630740242
C     -0.2392690029     4.1336246045     1.5920652251
C     -0.6029307081     4.6404301402     0.2562850178


