60

 C     -1.9797993942     -3.6515286406     -0.4154874805
C     -0.7861636152     -4.1467006473     0.0714042221
C     0.2386617436     -3.9855347502     -0.9610971893
C     -1.6880377807     -3.0298014547     -1.7293684027
C     -0.297099263     -3.1526796639     -2.0051166844
C     -2.3280273633     -1.7984765695     -1.7863329948
C     -2.7638678721     -2.7341932193     0.342794164
C     -3.1602254665     -1.6702749076     -0.5750966877
C     -2.3263104781     -2.3636258051     1.6292997666
C     -0.2340397349     -3.661438997     1.3160940337
C     -1.0103771897     -2.7846065566     2.084175983
C     1.4368535142     -3.6337902577     -0.3385112051
C     1.1728204786     -3.3613881935     1.0870718452
C     2.3167320561     -2.8010421709     -1.0454501419
C     0.4372754283     -1.98636376     -2.4574210732
C     1.8130430105     -1.9505776558     -2.1113892943
C     -1.6734161158     -0.6276702637     -2.331870499
C     -0.2673023686     -0.7066926218     -2.6671194839
C     -2.2843453153     0.6570786602     -2.0152000597
C     -3.456152678     -0.4218327327     -0.1014653367
C     -3.1793081895     0.7462210107     -0.9039893245
C     -2.5163053066     -0.9938634155     2.0779246305
C     -3.1913494773     -0.0728554692     1.286599084
C     -0.3805649177     -1.6388170605     2.7230124738
C     -1.3319045285     -0.5558359914     2.7786903392
C     1.81734622     -2.2725385012     1.7259749923
C     1.0090243408     -1.3825747718     2.5807989532
C     3.2246881137     -2.0264393461     -0.2979681548
C     2.9656580173     -1.6972655268     1.0499405381
C     2.5644414371     -0.6988023741     -2.0656506575
C     3.5072825399     -0.7977157623     -1.0189895196
C     0.5190508285     0.5456734044     -2.7355357326
C     1.9422810516     0.5479091552     -2.3529126264
C     -1.5746233475     1.849702112     -2.3599621969
C     -0.1584076158     1.7773649284     -2.6897920417
C     -1.8283952947     3.0670652064     -1.6924066601
C     -3.0967286066     1.8720038891     -0.0099627423
C     -2.8615786324     1.3303752648     1.3214416187
C     -2.482432371     3.0533153408     -0.4169963791
C     -0.933841473     0.810278403     2.7725655956
C     -1.772350126     1.8140690197     2.0996748475
C     1.4109412157     -0.0186653203     2.7418373994
C     0.4695205825     1.0446503185     2.8690118726
C     3.3268821841     -0.2898493482     1.2209166637
C     3.6863463235     0.2545089672     -0.0951563417
C     2.5906707737     0.5103782459     2.0695238692
C     2.4731914511     1.6919882755     -1.6696619901
C     3.2618375765     1.5221846758     -0.4702742205
C     0.4653751528     2.997138346     -2.163421637
C     -0.5675441965     3.7803876516     -1.5507485843
C     1.6942287085     2.8980265974     -1.5176203261
C     -1.6160858242     3.7232474334     0.5125716402
C     -1.1691197125     3.0581498973     1.6675023251
C     -0.4430533369     4.2046490555     -0.2253760486
C     1.0669032023     2.2635913808     2.3263316477
C     2.3563749334     1.9166532602     1.7635379105
C     2.7196958559     2.4404673427     0.5206487173
C     1.8486537485     3.3816370584     -0.1458802305
C     0.2890940911     3.2501394292     1.7571580898
C     0.7338827124     3.9045874253     0.5267289241


