60

 C     -4.3029433061     0.1999108113     -1.0590053264
C     -3.5853254187     0.8728159588     -2.016128772
C     -2.9714425534     2.0641764564     -1.3851533015
C     -4.2176322422     0.9981653423     0.1926572368
C     -3.2398176212     2.0636504464     0.0025686471
C     -4.0606156913     0.1105693794     1.2236735557
C     -3.9686306001     -1.183086036     -0.7362661524
C     -3.9150918588     -1.2709406812     0.6797063908
C     -2.9357175827     -1.8134723696     -1.4587812496
C     -2.5595356372     0.2340817335     -2.7946272734
C     -2.2891708211     -1.1277526614     -2.5695290651
C     -1.6797333841     2.2126987822     -1.8852978134
C     -1.4355443301     1.1563348454     -2.8650484459
C     -0.6211333525     2.629552032     -1.0140387534
C     -2.144705209     2.2365671554     0.935626677
C     -0.8279692623     2.6275638225     0.4243814798
C     -3.0914044599     0.318099391     2.2370184731
C     -2.2035821269     1.4541820787     2.1764351702
C     -2.8454297766     -1.8626557482     1.3666733764
C     -2.5194074542     -0.9900770106     2.4925372697
C     -1.8753829355     -2.50862133     -0.7476800283
C     -1.74443708     -2.4968475209     0.6624587986
C     -0.9210953698     -1.5765143092     -2.6515795347
C     -0.6780757451     -2.458588455     -1.5524066072
C     -0.128831425     0.7236195883     -3.1128316385
C     0.128831425     -0.7236195883     -3.1128316385
C     0.6780757451     2.458588455     -1.5524066072
C     0.9210953698     1.5765143092     -2.6515795347
C     1.8753829355     2.50862133     -0.7476800283
C     0.3827221903     2.5091566957     1.2673892978
C     1.74443708     2.4968475209     0.6624587986
C     -1.0209139219     1.3410965441     2.9498083339
C     0.2274933877     1.9430486516     2.549910864
C     -1.3020181644     -1.1009942509     3.106466593
C     -0.7036136792     0.0915139416     3.5810619978
C     -0.3827221903     -2.5091566957     1.2673892978
C     -0.2274933877     -1.9430486516     2.549910864
C     0.6211333525     -2.629552032     -1.0140387534
C     0.8279692623     -2.6275638225     0.4243814798
C     1.4355443301     -1.1563348454     -2.8650484459
C     1.6797333841     -2.2126987822     -1.8852978134
C     2.2891708211     1.1277526614     -2.5695290651
C     2.9357175827     1.8134723696     -1.4587812496
C     2.5595356372     -0.2340817335     -2.7946272734
C     3.9686306001     1.183086036     -0.7362661524
C     2.8454297766     1.8626557482     1.3666733764
C     3.9150918588     1.2709406812     0.6797063908
C     1.3020181644     1.1009942509     3.106466593
C     0.7036136792     -0.0915139416     3.5810619978
C     1.0209139219     -1.3410965441     2.9498083339
C     2.5194074542     0.9900770106     2.4925372697
C     2.144705209     -2.2365671554     0.935626677
C     4.0606156913     -0.1105693794     1.2236735557
C     2.2035821269     -1.4541820787     2.1764351702
C     3.0914044599     -0.318099391     2.2370184731
C     2.9714425534     -2.0641764564     -1.3851533015
C     3.5853254187     -0.8728159588     -2.016128772
C     4.3029433061     -0.1999108113     -1.0590053264
C     3.2398176212     -2.0636504464     0.0025686471
C     4.2176322422     -0.9981653423     0.1926572368


