60

 C     -3.9050036054     -0.7760494373     1.0721762461
C     -3.7378535008     -1.5923590511     -0.0346855782
C     -3.8069871112     -0.7432333395     -1.2487073405
C     -4.0240687152     0.6109546195     0.6086704065
C     -3.9514337814     0.6215811264     -0.8191908135
C     -3.1527483456     1.3949873072     1.4032753407
C     -2.979118056     -0.841178616     2.1467927835
C     -2.6786215217     0.5424873619     2.4793590803
C     -1.9019951076     -1.8052446449     2.1222388338
C     -2.6313863775     -2.4743287112     -0.1444023994
C     -1.6583703591     -2.5879272092     0.9133291587
C     -2.7871862943     -1.1323278151     -2.1180039388
C     -2.1771333437     -2.3256225129     -1.5160577483
C     -1.9395362922     -0.1557127297     -2.7836526501
C     -3.1598778993     1.5864958384     -1.4337951654
C     -2.2689051245     1.2064150389     -2.5234046224
C     -2.2460703069     2.3437380736     0.8014633937
C     -2.4158174558     2.5358793529     -0.6012064836
C     -0.8854739998     2.5562052176     1.394475135
C     -1.5010476918     0.8572258187     3.113359644
C     -0.5966097598     1.8893889362     2.5941507767
C     -0.7725996732     -1.4898853334     2.9359170098
C     -0.6866085058     -0.2171600634     3.5431070767
C     0.5966097598     -1.8893889362     2.5941507767
C     -0.2758768543     -2.9449769044     0.5498713991
C     0.8854739998     -2.5562052176     1.394475135
C     -0.9130248695     -2.6619362199     -1.8492916683
C     -0.0009532623     -3.1523580864     -0.8258601105
C     -0.5386712431     -0.5084067423     -3.0907258923
C     -0.134554624     -1.838405038     -2.785786917
C     0.5386712431     0.5084067423     -3.0907258923
C     -1.2122141433     2.1576323302     -2.5503295687
C     -1.296213574     2.9529083543     -1.3530853876
C     0.134554624     1.838405038     -2.785786917
C     0.2758768543     2.9449769044     0.5498713991
C     0.0009532623     3.1523580864     -0.8258601105
C     0.9130248695     2.6619362199     -1.8492916683
C     1.6583703591     2.5879272092     0.9133291587
C     0.7725996732     1.4898853334     2.9359170098
C     0.6866085058     0.2171600634     3.5431070767
C     1.5010476918     -0.8572258187     3.113359644
C     1.9019951076     1.8052446449     2.1222388338
C     2.6786215217     -0.5424873619     2.4793590803
C     2.979118056     0.841178616     2.1467927835
C     2.2460703069     -2.3437380736     0.8014633937
C     3.1527483456     -1.3949873072     1.4032753407
C     1.296213574     -2.9529083543     -1.3530853876
C     1.2122141433     -2.1576323302     -2.5503295687
C     2.4158174558     -2.5358793529     -0.6012064836
C     1.9395362922     0.1557127297     -2.7836526501
C     2.2689051245     -1.2064150389     -2.5234046224
C     3.1598778993     -1.5864958384     -1.4337951654
C     2.1771333437     2.3256225129     -1.5160577483
C     2.6313863775     2.4743287112     -0.1444023994
C     2.7871862943     1.1323278151     -2.1180039388
C     3.9050036054     0.7760494373     1.0721762461
C     4.0240687152     -0.6109546195     0.6086704065
C     3.9514337814     -0.6215811264     -0.8191908135
C     3.7378535008     1.5923590511     -0.0346855782
C     3.8069871112     0.7432333395     -1.2487073405


