60

 C     -1.8071022826     -4.0617521819     0.1522856725
C     -0.4085804847     -4.2270729332     -0.0249208439
C     0.2725942377     -3.6986474462     1.0983119711
C     -2.0026823945     -3.2339255688     1.3345028527
C     -0.7433472323     -2.9926545733     1.9141153659
C     -2.7861173555     -2.0805964     0.9944150906
C     -2.2516622218     -3.2655299959     -0.9265923881
C     -3.0550733947     -2.1725463499     -0.4372964328
C     -0.032627969     -3.6723668804     -1.3347550735
C     -1.1934998837     -3.0029484316     -1.8827785735
C     1.2089817939     -3.092064144     -1.4788437333
C     1.5842694181     -3.1624922943     0.9783498591
C     2.1303065626     -2.9896316182     -0.3483908549
C     1.9668114134     -2.2038899632     1.965611748
C     -0.4402588429     -1.7051077102     2.4949383511
C     0.922335712     -1.4096603017     2.6473797346
C     -2.5711274704     -0.7931464205     1.5793467987
C     -1.384459079     -0.5868846932     2.3823953655
C     -3.158271285     0.3461395757     0.8690436655
C     -3.0962358739     -1.0187420419     -1.1840624175
C     -3.3927872804     0.2313085721     -0.5320037994
C     -1.0803331461     -1.6975773071     -2.4609869943
C     -2.1568284623     -0.7790770808     -2.2564745864
C     1.3634112627     -1.8865611918     -2.2714262801
C     0.2442869739     -1.1152350961     -2.6972199761
C     3.0416977568     -1.9221506814     -0.6258553013
C     2.6038641169     -1.2703785221     -1.8545229588
C     3.0127866049     -1.3148346221     1.7105733598
C     3.5464840847     -1.1120892407     0.416011361
C     1.4009664939     -0.0402346094     2.7989926471
C     2.7025964207     0.0039796515     2.278223856
C     -0.8993153244     0.7832022789     2.608020828
C     0.5280672092     1.0677562696     2.6793457029
C     -2.8844645578     1.6482153321     1.3625932958
C     -1.7590153446     1.8498672781     2.2566711284
C     -2.9458055487     2.788589225     0.5010180565
C     -2.9193237958     1.2745351774     -1.3943855444
C     -1.9726836781     0.6427647112     -2.3057814491
C     -2.7072959724     2.5518297302     -0.9029870525
C     0.4116699373     0.344429172     -2.809671637
C     -0.7111259637     1.2548161552     -2.5760958423
C     2.8004509502     0.0730186532     -2.0585113758
C     1.7315102359     0.8708440903     -2.6309977374
C     3.7029337764     0.3319284697     0.2285687773
C     3.1195940467     1.0142292538     1.3947063549
C     3.468202448     0.8836885629     -1.0232713864
C     1.0763567884     2.2860191422     2.0569221811
C     2.3181969483     2.1956617041     1.2794873046
C     -1.225859146     3.1648692391     1.9830934213
C     -2.0315698477     3.784569518     0.9544208317
C     0.157844289     3.3170381594     1.7135725395
C     -1.5147814239     3.2779419735     -1.2862374794
C     -0.5047234034     2.6362315057     -2.0689727269
C     -1.1364238988     4.0422011583     -0.1111188482
C     0.220646263     3.9531256238     0.3875683833
C     1.8939995752     2.1911438441     -2.1416222829
C     2.9218895836     2.1890158561     -1.0994062576
C     2.3718000053     2.8665740655     0.0008803975
C     0.8461360769     3.049559859     -1.8055660831
C     1.2026914785     3.5927043921     -0.4906113851


