60

 C     -1.5450872964     3.7796228758     -0.8756794729
C     -0.3072404687     4.0660101559     -0.3544495912
C     -0.3209735648     3.8099516079     1.0990491079
C     -2.4093615908     3.4046544687     0.2542657515
C     -1.5578297619     3.1907690813     1.4131471478
C     -3.205182248     2.3754914542     -0.1819939629
C     -1.6622391512     2.7610782743     -1.9012251444
C     -2.816950902     2.0066728096     -1.5592266038
C     -0.5094654051     2.0365766648     -2.3556264098
C     0.8769623666     3.4898925615     -0.882698692
C     0.8224180863     2.4930725773     -1.9151267468
C     0.9201466008     3.2589384048     1.4487039393
C     1.7689456747     3.2878214977     0.2485935714
C     0.9823004385     2.1356521444     2.3286255471
C     -1.5466420724     1.9077866377     2.0909290346
C     -0.270055643     1.4372767034     2.6255427261
C     -3.3517573154     1.1700673433     0.5465775471
C     -2.5602292887     0.900449546     1.7090237386
C     -2.9231610448     0.6170920385     -1.7015411801
C     -3.5127688771     0.1193304761     -0.4582429369
C     -0.7003516245     0.6061422749     -2.7106542731
C     -1.9016197079     -0.1376789277     -2.3355132464
C     0.4574458991     -0.1536154489     -2.9746300108
C     1.9672033599     1.5877051042     -2.0178919487
C     1.7713280028     0.3479727328     -2.7136156163
C     2.8346272804     2.4316438955     0.1487664891
C     3.0088860535     1.6187012047     -1.0437207425
C     2.2161429314     1.3869315699     2.2768385674
C     3.1758827564     1.6404221078     1.2928893337
C     2.2429985449     -0.0649337371     2.5020104312
C     -0.1640793749     0.0470655818     2.9725879047
C     1.0863155282     -0.682782498     2.8828724791
C     -2.3858303648     -0.5106421911     2.0538872851
C     -1.2079226877     -0.8970375319     2.7480918489
C     -3.3772322987     -1.178417236     -0.1308994037
C     -2.9928766768     -1.5354241826     1.2296818456
C     -1.847786579     -1.5956775992     -2.0471567495
C     -2.7324734438     -2.1076368707     -1.0580904403
C     0.4800500852     -1.6303519239     -2.8438981354
C     -0.6136298418     -2.3467360087     -2.2983850902
C     2.574772801     -0.794063219     -2.4149430944
C     1.8099799062     -2.0011219458     -2.5432639371
C     3.6425129894     0.3762494023     -0.6040227747
C     3.684500959     0.3628898078     0.8073630823
C     3.1338901097     -0.7085926542     1.5487882755
C     3.3741296962     -0.8446664307     -1.2489920593
C     2.0773202017     -2.7842953231     -1.3757693512
C     2.7338936373     -1.9339118531     0.896744995
C     2.990319456     -2.0292949623     -0.5006896509
C     0.8147563094     -2.0579401323     2.4798292083
C     -0.6037759936     -2.2279817137     2.5696086448
C     1.5933248475     -2.6860725118     1.4606200719
C     -2.4619764758     -2.8302566962     1.1494966027
C     -2.3667826448     -3.2327300337     -0.2603440791
C     -1.2395970375     -3.2092259328     1.8014019714
C     -0.2699159597     -3.4803293201     -1.4483919697
C     1.0574232776     -3.5342911508     -0.8460427567
C     0.8901723167     -3.6206725201     0.6123298066
C     -1.16989328     -3.9033215905     -0.4454202871
C     -0.4539617949     -3.9342286589     0.8498794035


