60

 C     -0.7804978005     3.3444890822     1.9654501654
C     -1.6383015022     3.5161431345     0.8851023313
C     -0.8203555708     3.9084425264     -0.2813346466
C     0.5883771426     3.6448651341     1.5499808097
C     0.5570486194     3.9702850849     0.1527205947
C     1.4244408241     2.6170110222     2.0384649855
C     -0.8036825795     2.1240718261     2.6967422519
C     0.5962999025     1.7719989103     2.895230845
C     -1.7631825137     1.1075049119     2.4117250481
C     -2.5459722297     2.5042281293     0.5125369023
C     -2.6759328688     1.3016070769     1.2726376732
C     -1.2279194449     3.1583633939     -1.3831241088
C     -2.4214585751     2.4137347928     -0.9539172359
C     -0.2616482894     2.5221185991     -2.2631311746
C     1.5147810079     3.4074421799     -0.6757478368
C     1.1097518729     2.8169797399     -1.9605547832
C     2.4413711841     2.0129330628     1.2123520617
C     2.5640631759     2.5569116311     -0.1096681964
C     2.8027956249     0.5948285315     1.422221418
C     0.9541975226     0.4703059788     3.0968888406
C     2.1288034448     -0.1037268914     2.4690619483
C     -1.4141209088     -0.2599350413     2.8237532934
C     -0.0709235345     -0.5460068038     3.2240493551
C     -2.1624857822     -1.3576009096     2.2910921731
C     -3.2217407492     0.1230742753     0.5688694921
C     -3.0361943554     -1.1672153399     1.1174478126
C     -2.7853219685     1.2946625265     -1.6134503535
C     -3.3779437016     0.1844888923     -0.8687914266
C     -0.5826786576     1.2330048193     -2.8699079975
C     -1.9337469646     0.7439233333     -2.6836618017
C     0.4463250517     0.2218944866     -3.0973803015
C     2.0811144394     1.869064837     -2.2961394006
C     3.0208776856     1.7216217622     -1.1551478785
C     1.7975723742     0.6059146621     -2.8146896584
C     3.3200620582     -0.2193147934     0.3129378836
C     3.3413521359     0.3877195133     -1.003372892
C     2.7237434678     -0.3174634123     -2.1552394608
C     3.1468270429     -1.6330400855     0.3334113747
C     1.9063508501     -1.5224340567     2.4244043266
C     0.5603166493     -1.8091868434     2.9387256337
C     2.426628208     -2.2916617702     1.3947647351
C     -1.5794040207     -2.6331544511     2.2008554701
C     -0.191678366     -2.8471213612     2.404161521
C     -2.8803059752     -2.3370983356     0.2764518003
C     -1.9416866807     -3.2044746743     0.9102469627
C     -3.1682315773     -0.9533662605     -1.663286316
C     -2.2269569403     -0.6087638835     -2.7364215824
C     -2.7849024597     -2.1893909465     -1.1178333483
C     0.1285489929     -1.2224965815     -2.9890898179
C     -1.2229193304     -1.6190993407     -2.7795934848
C     -1.5863671291     -2.6554145595     -1.826535372
C     2.4371262395     -1.6438023029     -2.0675473441
C     2.8407484694     -2.35581202     -0.8894322527
C     1.1110256456     -2.1240756115     -2.4764026634
C     1.5955567517     -3.3512971995     0.7901722166
C     0.3112294309     -3.5781720037     1.2306009252
C     -0.8024926091     -3.7008633459     0.2649953379
C     -0.5826230364     -3.394597599     -1.1467568566
C     1.8504831004     -3.3107950009     -0.6265211785
C     0.7638573066     -3.1922521311     -1.5833767196


