60

 C     -0.9477595557     -4.2484256866     0.3800486683
C     0.3105317725     -4.1254078985     -0.3117095154
C     1.2736969064     -3.5840014611     0.5656301344
C     -0.8079448349     -3.5979491091     1.6523739393
C     0.5193441888     -3.1447184745     1.7687976718
C     -1.8192436866     -2.5604463785     1.7429516058
C     -1.8710749315     -3.4784069432     -0.3500779313
C     -2.5394270697     -2.5392508272     0.5004001127
C     0.1114312801     -3.4843689329     -1.5924720437
C     -1.2868406935     -2.9983317772     -1.5975687065
C     1.1087144595     -2.6622884906     -2.0801061367
C     2.3390071074     -2.7881496476     0.0624544724
C     2.3222447559     -2.4127776228     -1.3240075166
C     2.9083640195     -1.856095655     0.9840930708
C     0.837489096     -1.872271016     2.404623556
C     2.1066006509     -1.3636960877     2.1371117434
C     -1.604037129     -1.3412710504     2.4465771013
C     -0.2491230106     -0.9389981671     2.8081857801
C     -2.5810159398     -0.3461609673     2.1690699515
C     -3.0523642558     -1.3316248072     -0.0440119564
C     -3.3068328407     -0.3159399095     0.8963784609
C     -1.6370887394     -1.7479779064     -2.1178571728
C     -2.6984942108     -0.9567898123     -1.4251946726
C     0.7574108261     -1.4477620662     -2.7879547566
C     -0.5942799666     -1.0168977083     -2.8818330436
C     2.8047081676     -1.116726835     -1.7318882546
C     1.8198858737     -0.5033538842     -2.6181694541
C     3.6263610471     -0.7646711961     0.5101036788
C     3.5033781392     -0.3066053522     -0.8442011641
C     2.4148599236     0.047694486     2.3250113862
C     3.4092837824     0.37903507     1.3805754727
C     0.0440453689     0.4708731245     2.9662802606
C     1.3858089352     0.9849139353     2.6674205376
C     -2.3370722095     0.9852576003     2.5331327693
C     -1.0477705507     1.4160886783     2.8667641212
C     -3.4524933376     1.0750393675     0.5071771151
C     -2.9261961605     1.8915381431     1.5401914321
C     -2.8820995877     0.3877504444     -1.7843141985
C     -3.236131295     1.4287687304     -0.8286368016
C     -0.7720101728     0.3549478316     -3.1507900569
C     -1.9927630252     1.0058500198     -2.7365469654
C     1.5876206858     0.9053508764     -2.6226708558
C     0.2864976342     1.3082327696     -3.0270913151
C     3.2657229015     1.1413733362     -0.8058262262
C     3.3126618401     1.5429525671     0.5962133555
C     2.3418240031     1.7625668726     -1.689280153
C     1.5356730674     2.3093139847     2.1378897219
C     2.4772597249     2.5675167895     1.0716013744
C     -0.8883349114     2.7173370165     2.2173542208
C     -2.004200445     2.9123949043     1.2724284445
C     0.3661173962     3.1553111771     1.8791314762
C     -2.4304003597     2.5970098785     -1.1269833387
C     -1.7537240193     2.3358311259     -2.3881141282
C     -0.333587764     2.5529549794     -2.5279969234
C     -1.7481017641     3.3166879804     -0.0993910483
C     1.7022259407     2.9769641712     -1.2211410834
C     1.8498356047     3.3985742496     0.1072990097
C     0.552651986     3.8245698014     0.6187591977
C     0.3231998665     3.3187529667     -1.6029538895
C     -0.4040443847     3.7799126921     -0.3972402338


