60

 C     4.7598360485     -0.6802027791     0.2577781167
C     4.7496546981     0.4338136155     -0.6349635057
C     4.1871438949     1.5232315057     0.0043289151
C     4.0726795951     -0.2631913876     1.4949249204
C     3.664654806     1.0748204561     1.3416703646
C     3.0442810481     -1.2164094603     1.7985400427
C     3.9225015543     -1.6560023776     -0.2948575282
C     3.0311605573     -2.1760841581     0.7067212909
C     3.8227845029     0.1090743412     -1.7765609569
C     3.3282285671     -1.2050594486     -1.5809508776
C     3.2226384394     2.1167457533     -0.8999051928
C     2.9174067248     1.1648293694     -1.9893383328
C     2.1829863662     2.7842864603     -0.3557785524
C     2.3563035469     1.5135305834     1.7798885668
C     1.8059086466     2.6201271298     1.0748729603
C     1.7871144687     -0.8294505744     2.3486895085
C     1.3869921403     0.5717961803     2.3637477857
C     0.7712613297     -1.8140060463     2.262127701
C     1.8509367625     -2.8016705868     0.3186398661
C     0.8497278271     -2.9018831448     1.3200420027
C     1.9720247751     -1.4994886551     -1.8439189675
C     1.3739748079     -2.606513375     -1.06725244
C     1.5424063224     0.904162392     -2.3218582081
C     1.0814147932     -0.4619960155     -2.3633168593
C     0.9554265225     2.9187298481     -1.0813926914
C     0.553571501     1.9384695663     -2.0382001464
C     0.4613090912     2.9743279284     1.179971001
C     0.0117555097     3.4293148938     -0.1479919341
C     -0.0375882001     0.8962668036     2.4276147603
C     -0.4806463047     2.2009994868     1.9534759462
C     -0.6134334568     -1.5192867349     2.4768502388
C     -1.0531297402     -0.1772271198     2.527966933
C     -0.4693284418     -3.3341120892     1.0143894096
C     -1.3928895567     -2.5760683647     1.845516999
C     0.0787181916     -2.9545102253     -1.3402697542
C     -0.8013646723     -3.5719212605     -0.3374169272
C     -0.3590013865     -0.7293768285     -2.4561129015
C     -0.7677504097     -2.0925639906     -2.1885045525
C     -0.8780234604     1.6963771934     -2.1757555274
C     -1.3519715604     0.3200945344     -2.4103062397
C     -1.3043512884     3.4706477703     -0.4740553174
C     -1.7673986511     2.6489126869     -1.5924518557
C     -1.8564989418     2.4709913449     1.6949567957
C     -2.2550911027     3.3162446523     0.6048284724
C     -2.463316964     0.0710735143     2.1470662638
C     -2.8707555826     1.4041466988     1.8060076988
C     -2.6880976008     -2.3306849862     1.4082465439
C     -3.2337702301     -0.9919724369     1.5761029314
C     -2.128223343     -3.3346474887     -0.753098181
C     -2.0906847729     -2.4060920206     -1.9148253296
C     -3.0885120177     -2.8347988243     0.1174581382
C     -2.7522632517     -0.0244980593     -2.051790205
C     -4.0500709527     -0.7132203571     0.390763606
C     -3.0846625628     -1.4001920814     -1.7705592093
C     -3.7633359525     -1.7214314149     -0.5511331845
C     -3.1071807561     2.2852499082     -1.237915909
C     -3.4463083379     2.7962313827     0.0528956144
C     -3.8636940878     1.6514881542     0.8172247103
C     -3.5591137743     0.9338839584     -1.3761394462
C     -4.1663456788     0.5846939793     -0.0866874707


