60

 C     1.538105758     -4.0845089821     -0.5445699097
C     1.1651687318     -3.9039849824     0.8586024074
C     -0.2425304385     -3.7867753481     0.9781675387
C     0.384878484     -3.923850788     -1.3125589252
C     -0.7493805662     -3.8975153378     -0.4102684993
C     0.5717298467     -2.7872582056     -2.2251982326
C     2.4510486526     -3.0389690923     -0.8760109057
C     1.8782709634     -2.2592531536     -1.9568293452
C     2.0214014735     -2.9041661576     1.4137981673
C     2.818584057     -2.3424520942     0.3055065404
C     1.4855072892     -2.0258755044     2.344981253
C     -0.8251830532     -2.8086122223     1.862490945
C     0.0784260719     -2.0270891538     2.636747854
C     -2.1258386233     -2.1898572151     1.5055713459
C     -1.8388304842     -3.1725757349     -0.7859895279
C     -2.6762042164     -2.4898231451     0.2125687782
C     -0.5123363605     -1.9198048871     -2.5176750106
C     -1.7923873705     -2.3245453742     -1.988108786
C     -0.2579450299     -0.4911627485     -2.7382528332
C     2.1383958109     -0.8824641701     -2.0515105134
C     1.1070275064     -0.0220752526     -2.6297421013
C     3.125013954     -0.9607656519     0.246441546
C     3.0453997822     -0.3020479639     -1.0533501377
C     1.9615518331     -0.6548665262     2.4072686902
C     2.847175062     -0.1473734334     1.430284812
C     -0.2518980007     -0.6690563085     3.0467913285
C     0.9048531682     0.1756288875     2.9147821257
C     -2.4790447099     -0.9169929648     2.0612995181
C     -1.5091653782     -0.1429890661     2.8187390277
C     -3.2795240402     0.0475467177     1.3473658476
C     -3.4026400752     -1.5107244431     -0.4841971111
C     -2.7711218163     -1.3597766153     -1.8018775251
C     -3.6666098733     -0.2283074415     0.0250204555
C     -1.3479835646     0.4924595209     -2.5572519268
C     -2.5969492448     0.0148922783     -2.0784100093
C     -3.3352358947     0.7438388004     -1.0298539171
C     -1.0612940525     1.9188891919     -2.3244975768
C     1.3526839572     1.392224341     -2.6072156162
C     0.2678137766     2.3714499254     -2.4344706595
C     3.2491682746     1.0909572112     -1.0972508315
C     2.5156718972     1.8973315182     -2.0222465488
C     2.894191839     1.2817513517     1.3170314079
C     3.3138551792     1.8523021688     0.1151161406
C     0.7862137847     1.5761623837     2.603559632
C     1.879613825     2.1519909999     1.9198136212
C     -1.6790028732     1.2720685287     2.5507192505
C     -2.8152603812     1.3841110908     1.6793383869
C     -0.5551395824     2.1593579423     2.4450290041
C     -2.9848548399     2.0177803713     -0.7032473386
C     -1.9345041597     2.6927687232     -1.4606894002
C     -2.8397003526     2.4017685355     0.7118516165
C     -0.6997159598     3.2993778365     1.5812972057
C     -1.3850306623     3.6705967566     -0.6080389924
C     -1.8480511854     3.3937398823     0.7549832592
C     0.780060293     3.4710040618     -1.6379065063
C     2.1492355537     3.1728526455     -1.3640060996
C     2.613485543     3.133235515     -0.0658274497
C     1.7107895848     3.3077353247     1.0483552808
C     -0.0096858439     3.9810643454     -0.5839266944
C     0.4377269805     3.8106328086     0.8074559446


