60

 C     -2.1924317325     -3.2623313756     0.6843978518
C     -2.1924317325     -3.2623313756     -0.6843978518
C     -2.9216828166     -2.0460293042     -1.1406971026
C     -2.9216828166     -2.0460293042     1.1406971026
C     -3.322005972     -1.2839121493     0.
C     -2.1937071869     -1.4729195222     2.1762356173
C     -0.9782885906     -3.3794392701     1.4272973671
C     -1.0781760826     -2.3795692615     2.4776380575
C     0.2695848965     -3.5871073844     0.7370687511
C     -0.9782885906     -3.3794392701     -1.4272973671
C     0.2695848965     -3.5871073844     -0.7370687511
C     -2.1937071869     -1.4729195222     -2.1762356173
C     -1.0781760826     -2.3795692615     -2.4776380575
C     -2.0404498128     -0.0401074905     -2.2501321986
C     -3.1686733166     0.1104906671     0.
C     -2.7367846167     0.7485550137     -1.251245585
C     -2.0404498128     -0.0401074905     2.2501321986
C     -2.7367846167     0.7485550137     1.251245585
C     -0.8413922944     0.5054816736     2.8940133367
C     0.0548624756     -1.8537173092     3.0521532616
C     0.1723223819     -0.4099091692     3.2830141382
C     1.4420728474     -3.081378797     1.4124092627
C     1.3110317956     -2.347636371     2.5994539379
C     2.5443450702     -2.4292693195     0.6794150074
C     1.4420728474     -3.081378797     -1.4124092627
C     2.5443450702     -2.4292693195     -0.6794150074
C     0.0548624756     -1.8537173092     -3.0521532616
C     1.3110317956     -2.347636371     -2.5994539379
C     -0.8413922944     0.5054816736     -2.8940133367
C     0.1723223819     -0.4099091692     -3.2830141382
C     -0.4476339743     1.8995468109     -2.6186478902
C     -2.4854949955     2.1393369133     -1.2106982855
C     -1.3787979568     2.7339998029     -1.9372346859
C     -2.4854949955     2.1393369133     1.2106982855
C     -2.6931855168     2.8946678979     0.
C     -0.4476339743     1.8995468109     2.6186478902
C     -1.3787979568     2.7339998029     1.9372346859
C     0.9390594456     2.2161447017     2.4571831182
C     1.5664631953     -0.0750575481     3.0863798366
C     2.2450743034     -1.228004018     2.6048365059
C     2.9736947592     -1.2170874171     1.4116736136
C     1.9124726945     1.1583452767     2.5311891422
C     3.2190367808     0.0296383116     0.7300521416
C     2.802529064     1.2225352731     1.4045311258
C     2.9736947592     -1.2170874171     -1.4116736136
C     2.2450743034     -1.228004018     -2.6048365059
C     1.5664631953     -0.0750575481     -3.0863798366
C     3.2190367808     0.0296383116     -0.7300521416
C     0.9390594456     2.2161447017     -2.4571831182
C     1.9124726945     1.1583452767     -2.5311891422
C     2.802529064     1.2225352731     -1.4045311258
C     1.3662943454     3.1168075465     1.41238013
C     2.4492182741     2.436433473     0.6905821456
C     1.3662943454     3.1168075465     -1.41238013
C     2.4492182741     2.436433473     -0.6905821456
C     -0.9342197953     3.8385628998     -1.1386707008
C     -1.7931582851     3.9877945246     0.
C     -0.9342197953     3.8385628998     1.1386707008
C     0.4495091717     3.9096553469     -0.734326151
C     0.4495091717     3.9096553469     0.734326151


