60

 C     0.9417929961     4.0894771302     0.5054606731
C     0.5967606288     4.0477976391     -0.8518574637
C     1.603272626     3.2758391155     -1.5581959981
C     2.1775692056     3.3354903907     0.6800859554
C     2.6184315596     2.882629844     -0.6084619255
C     1.965283796     2.395571932     1.7092400497
C     0.001118676     3.6815700533     1.5011052438
C     0.6047259828     2.5821706627     2.2361792904
C     -1.3524153081     3.5782648438     1.1282043564
C     -0.7009211745     3.5791311874     -1.255805269
C     -1.6999925293     3.4787431189     -0.3061679255
C     0.9583906006     2.2904403448     -2.3288612566
C     -0.4911247534     2.4657548866     -2.2042533209
C     1.522278655     0.9716943573     -2.485305562
C     3.142728005     1.6070351994     -0.7089195717
C     2.7326766525     0.7078296154     -1.7833441304
C     2.5292326514     1.0894012721     1.6381573163
C     3.2916158606     0.7810279786     0.4676505457
C     1.8521588893     -0.0217395686     2.3198154896
C     -0.1534858732     1.4538541073     2.6500873291
C     0.4591847405     0.1236232257     2.7083626906
C     -2.1409311884     2.6177727969     1.7812683737
C     -1.583390695     1.5356088853     2.4915384245
C     -2.7099245394     2.4389457056     -0.4670757116
C     -3.0944971386     2.0368844251     0.8241445915
C     -1.3725533066     1.3879174633     -2.3238989042
C     -2.6067100392     1.4332302097     -1.4990267399
C     0.6273392113     -0.134600215     -2.7985852663
C     -0.8240358352     0.0795527746     -2.7739493896
C     1.1273672269     -1.4599291825     -2.6069366686
C     3.0760161104     -0.626661274     -1.390233547
C     3.4414497438     -0.5810848409     0.018661505
C     2.3404266389     -1.7029663241     -1.8611645929
C     2.359471692     -1.331343633     2.072781081
C     3.1171864613     -1.6249257472     0.8488941765
C     1.5743826553     -2.4576874459     2.3505747965
C     -0.4114911717     -1.0592419978     2.686812366
C     0.1854987646     -2.3369428772     2.5924584414
C     -2.3727394333     0.33256893     2.1834898889
C     -3.336892862     0.6908289967     1.1561349652
C     -1.8108997987     -0.9426838932     2.2153388064
C     -3.2785623788     0.2200049853     -1.2359710166
C     -3.6032506887     -0.1882875133     0.1135884148
C     -1.6481388931     -1.0628273647     -2.6504961395
C     -2.880388663     -0.9764981613     -1.9193828104
C     0.25561349     -2.5874112659     -2.3661340213
C     -1.1093782462     -2.3916733262     -2.395610395
C     2.1624066671     -2.8988980989     -1.0447012581
C     2.6139190834     -2.8813398774     0.2923760381
C     1.7776476509     -3.4647628845     1.2929869466
C     0.8714737645     -3.4765663398     -1.3788956566
C     -0.4596067473     -3.4041460186     1.8192386371
C     0.5576973831     -4.0392164235     0.9804098158
C     0.0662565304     -4.03891713     -0.3701787196
C     -2.3780381971     -1.977719956     1.3106828442
C     -3.2361297066     -1.5757154132     0.2561758066
C     -3.0106806425     -2.0989828709     -1.0743776202
C     -1.9431669241     -3.00586002     -1.3533458171
C     -1.6008859261     -3.1732834258     1.0754168545
C     -1.3411418394     -3.6687492877     -0.3061851168


