60

 C     -2.7769917658     -2.8864216803     -0.8571200947
C     -2.8059259466     -2.9969702641     0.5750464212
C     -1.5971370386     -3.6164016494     0.9718699264
C     -1.5915134478     -3.4742431437     -1.3693858036
C     -0.8780692929     -3.996128517     -0.2347691057
C     -0.9306945405     -2.4659703893     -2.1832088317
C     -2.9795897214     -1.6056507996     -1.479252982
C     -1.8059904163     -1.3233948859     -2.3076021046
C     -3.5109359263     -0.5808358816     -0.7229172749
C     -2.9676626594     -1.7990745018     1.3570812143
C     -3.4930027807     -0.6774008798     0.7517415174
C     -0.9388317088     -2.7723904402     1.9458845156
C     -1.7775075326     -1.6385436467     2.2065370182
C     0.4794376312     -2.6566345713     1.9816409895
C     0.4808026159     -3.8653242733     -0.2034514566
C     1.1770641951     -3.4798679543     1.0244598751
C     0.4735268737     -2.277306195     -2.1561704719
C     1.206503281     -3.2099511421     -1.3123509215
C     1.040315043     -0.9443287663     -2.3784710247
C     -1.3006285052     -0.0167338772     -2.4604697622
C     0.1481258374     0.1846902217     -2.582973463
C     -3.2044762444     0.7711460997     -1.0591063292
C     -2.1645015548     1.0838191643     -1.9855431205
C     -3.1558287741     0.6208234967     1.2446164575
C     -3.3292675174     1.5670651757     0.1537650475
C     -1.2301569033     -0.3536130669     2.477751413
C     -2.0661367795     0.801423208     2.1459399115
C     1.0787387794     -1.3689815452     2.3906991895
C     0.2259308448     -0.1982292325     2.5826327813
C     2.4606857458     -1.1499529329     2.0563452482
C     2.4701046712     -3.1268014778     0.6203016432
C     2.4908426356     -2.9378982343     -0.8665692899
C     3.142028198     -2.0762474819     1.1880678592
C     2.4396150658     -0.7026563891     -1.9327127763
C     3.1264580928     -1.7078353384     -1.1217600867
C     3.7793359537     -1.3083794977     0.1126176018
C     2.8691724079     0.6170171885     -1.7385284275
C     0.6663783203     1.5600335543     -2.4567746944
C     2.0386443046     1.7518740616     -2.0869447532
C     -1.6391796498     2.4073362256     -1.9044062414
C     -0.2139641028     2.6447154981     -2.1548239935
C     -2.8071211211     2.8360240042     0.2210753416
C     -2.1089098802     3.3316954299     -0.9394212925
C     -1.4870788072     2.1125187187     2.1729793578
C     -2.0016709138     3.1643114948     1.3723065383
C     0.8068503786     1.1494551608     2.4335264576
C     -0.0515654693     2.2734899783     2.3210490253
C     2.9474739205     0.1560859989     1.7057207114
C     3.7744110617     0.018855685     0.4903200926
C     3.6318110145     0.9839392581     -0.5277549996
C     2.1756190894     1.3183724722     1.9168356934
C     2.3875216541     2.8170427623     -1.2104624868
C     3.1999850597     2.2370941593     -0.1467110023
C     2.4898771353     2.4588995252     1.0844693039
C     0.1866569113     3.7284439477     -1.2829970127
C     -0.9549508745     4.0685590448     -0.4731322206
C     -0.8850029096     3.9595724644     0.9206191268
C     0.3216502877     3.4488634736     1.5440423326
C     1.4357735118     3.6736691889     -0.657868765
C     1.5029525629     3.4673317942     0.8237185775


