60

 C     0.5081766475     -4.6070284429     1.0806068678
C     -0.896868102     -4.3283112567     1.0850599869
C     -1.3915590537     -4.4164795615     -0.2529883146
C     0.9276722744     -4.4514596925     -0.3192178967
C     -0.1905798572     -4.3856058266     -1.149442752
C     1.9036036343     -3.3985537955     -0.4048369897
C     1.1288593284     -3.5584724904     1.7790814168
C     2.1002895897     -2.9148761074     0.9535078617
C     -1.1628667891     -3.1277677906     1.8631010023
C     0.1193970266     -2.6649307047     2.354420019
C     -2.0872851282     -2.1405249108     1.4039802133
C     -2.2553239683     -3.4437202093     -0.7022876187
C     -2.7047011957     -2.3504464199     0.1065917124
C     -0.3629982438     -3.3055942605     -2.0884404351
C     -1.7122676576     -2.8620038472     -1.9520167402
C     1.8582862075     -2.4267467072     -1.4533093762
C     0.6515596995     -2.295827089     -2.2752494177
C     2.6196403778     -1.2523472968     -1.2071338333
C     2.4769517476     -1.576695835     1.2216330389
C     3.0552662445     -0.8844674402     0.1357081485
C     0.3989584826     -1.3032250777     2.5700361594
C     1.7314041103     -0.7973390113     2.2092745725
C     -1.9081358509     -0.7747919164     1.84893671
C     -0.7063092886     -0.3623329707     2.5425166007
C     -2.6210303051     0.2780187654     1.1399572777
C     -2.7817543418     -1.2144871916     -0.7643879945
C     -2.0600109083     -1.5238199998     -2.010571423
C     -2.8392741046     0.084912664     -0.2893470388
C     0.2428037652     -0.9460202322     -2.6567852737
C     -1.1461453775     -0.5479507885     -2.4909144547
C     2.4471373195     -0.0562686506     -1.9520649589
C     1.2271517339     0.133306787     -2.6708186239
C     3.2540387191     0.5212766748     0.1675600903
C     3.0047002536     1.0426900019     -1.1660276539
C     1.9462094547     0.5872415905     2.2306472653
C     2.7967606174     1.2537873565     1.262250556
C     -0.4275870455     1.0609851077     2.7467414714
C     0.924147639     1.5202171609     2.6350499764
C     -2.5435664213     1.5932349647     1.601471235
C     -1.4494325255     2.0123822251     2.48621603
C     -2.7827453997     2.6657568511     0.7017524507
C     -2.5080932391     1.1662030972     -1.2146191454
C     -1.5265004894     0.8433851071     -2.2717170293
C     -2.5912518154     2.474156316     -0.7191003609
C     0.7758277708     1.4765864553     -2.8321411884
C     -0.615526429     1.8367430155     -2.6402414517
C     2.5631165723     2.3385213294     -1.3250946666
C     1.5233311171     2.5636807062     -2.2876468709
C     2.3108220222     2.6117324386     1.1002577581
C     1.2166379891     2.8115226317     2.0536213929
C     2.2498545962     3.1852188189     -0.1677151828
C     -1.1444353126     3.3765496884     2.1786629583
C     -2.0331733281     3.807174628     1.1394269033
C     0.1955153506     3.7220750294     1.7781085844
C     -1.654120453     3.5146407512     -1.1446051792
C     -0.6749945969     3.1947917073     -2.0738923995
C     0.6744056652     3.623494393     -1.8474964986
C     1.0920033018     4.0158029608     -0.5285463541
C     -1.2677000033     4.269824442     0.0458440609
C     0.1217080731     4.3321819581     0.436634502


