60

 C     1.480129188     -3.4495887737     1.448764967
C     1.6624200288     -3.7075840572     0.1002010979
C     0.3763771743     -4.0731317883     -0.4828043497
C     0.0690189082     -3.6338321494     1.7493524678
C     -0.6335452826     -3.9395318347     0.5181199464
C     -0.3275338619     -2.5547250377     2.5486715015
C     1.9274235536     -2.2069310307     2.0307245774
C     0.8395357729     -1.6806929726     2.8028152054
C     2.7741521498     -1.3243113855     1.2900624658
C     2.2934936091     -2.721502791     -0.7326039429
C     2.9838972814     -1.602713322     -0.1468022135
C     0.2604546101     -3.3616117087     -1.7053538607
C     1.4626724675     -2.5402223634     -1.8958894175
C     -0.9661792824     -2.8550015861     -2.1035589957
C     -1.8644656075     -3.2588337521     0.2064228281
C     -2.0793545998     -2.8870625746     -1.1692142679
C     -1.5742064678     -1.9502464455     2.3167236163
C     -2.3719056373     -2.3258588022     1.1917673036
C     -1.7647865382     -0.5306656656     2.5990062363
C     0.6827640781     -0.2928805592     3.0140289113
C     -0.6827640781     0.2928805592     3.0140289113
C     2.7618715742     0.0326517337     1.7104336159
C     1.7647865382     0.5306656656     2.5990062363
C     3.1177250954     1.1282232511     0.8192770445
C     3.1996722048     -0.5112209005     -1.011674803
C     3.4013715746     0.8584691813     -0.5103208547
C     1.4125148795     -1.291674694     -2.5647948374
C     2.4624571284     -0.3927507215     -2.2436514411
C     -1.0254490582     -1.5668474265     -2.8066519584
C     0.1057314742     -0.7349816029     -2.9783065216
C     -2.9157025021     -1.7743376296     -1.4900487544
C     -2.2938470631     -0.9928635983     -2.5046955669
C     -3.1177250954     -1.1282232511     0.8192770445
C     -2.7618715742     -0.0326517337     1.7104336159
C     -3.4013715746     -0.8584691813     -0.5103208547
C     -2.7741521498     1.3243113855     1.2900624658
C     -0.8395357729     1.6806929726     2.8028152054
C     -1.9274235536     2.2069310307     2.0307245774
C     1.5742064678     1.9502464455     2.3167236163
C     2.3719056373     2.3258588022     1.1917673036
C     0.3275338619     2.5547250377     2.5486715015
C     1.8644656075     3.2588337521     0.2064228281
C     2.9157025021     1.7743376296     -1.4900487544
C     2.2938470631     0.9928635983     -2.5046955669
C     2.0793545998     2.8870625746     -1.1692142679
C     -0.1057314742     0.7349816029     -2.9783065216
C     1.0254490582     1.5668474265     -2.8066519584
C     0.9661792824     2.8550015861     -2.1035589957
C     -2.4624571284     0.3927507215     -2.2436514411
C     -3.1996722048     0.5112209005     -1.011674803
C     -2.9838972814     1.602713322     -0.1468022135
C     -1.4125148795     1.291674694     -2.5647948374
C     -0.2604546101     3.3616117087     -1.7053538607
C     -2.2934936091     2.721502791     -0.7326039429
C     -1.4626724675     2.5402223634     -1.8958894175
C     -1.480129188     3.4495887737     1.448764967
C     -0.0690189082     3.6338321494     1.7493524678
C     0.6335452826     3.9395318347     0.5181199464
C     -1.6624200288     3.7075840572     0.1002010979
C     -0.3763771743     4.0731317883     -0.4828043497


