60

 C     3.9559580132     0.1487624777     0.6849985021
C     3.9559580132     0.1487624777     -0.6849985021
C     3.3427734058     1.4212722959     -1.1384680883
C     3.3427734058     1.4212722959     1.1384680883
C     2.8852194863     2.1540665927     0.
C     2.4865493024     1.1274728186     2.1927096014
C     3.3548268322     -0.9231052377     1.4303337602
C     2.52370806     -0.3235773946     2.4527442501
C     2.8660897871     -2.0341976802     0.7269893778
C     3.3548268322     -0.9231052377     -1.4303337602
C     2.8660897871     -2.0341976802     -0.7269893778
C     2.4865493024     1.1274728186     -2.1927096014
C     2.52370806     -0.3235773946     -2.4527442501
C     1.2667585364     1.8732544452     -2.340947131
C     1.5725710043     2.7485756467     0.
C     0.8377347838     2.752798644     -1.2648173691
C     1.2667585364     1.8732544452     2.340947131
C     0.8377347838     2.752798644     1.2648173691
C     0.3083888456     1.2801459725     3.207392259
C     1.3916618573     -0.9741487966     2.9737186082
C     0.4034336469     -0.1032732528     3.5667406318
C     1.6384490906     -2.6658040218     1.170810624
C     0.9439247511     -2.2338268907     2.3302443145
C     1.6384490906     -2.6658040218     -1.170810624
C     0.9213389781     -3.1145666868     0.
C     1.3916618573     -0.9741487966     -2.9737186082
C     0.9439247511     -2.2338268907     -2.3302443145
C     0.3083888456     1.2801459725     -3.207392259
C     0.4034336469     -0.1032732528     -3.5667406318
C     -1.1248992235     1.6117912736     -3.1065819055
C     -0.5677839426     3.085937874     -1.2294403468
C     -1.5365622396     2.4444264201     -2.0767865793
C     -0.5677839426     3.085937874     1.2294403468
C     -1.1994430214     3.3488329752     0.
C     -1.1248992235     1.6117912737     3.1065819055
C     -1.5365622396     2.4444264201     2.0767865793
C     -0.9475662318     -0.5633880611     3.7717795464
C     -1.9048442534     0.4946117185     3.4487613468
C     -0.467629298     -2.5340366213     2.3833491901
C     -1.356444504     -1.7340248009     3.1801717496
C     -0.5018557732     -3.1506493142     0.
C     -1.1836440919     -2.8650077271     1.2074022899
C     -0.467629298     -2.5340366213     -2.3833491901
C     -1.1836440919     -2.8650077271     -1.2074022899
C     -0.9475662318     -0.5633880611     -3.7717795464
C     -1.9048442534     0.4946117185     -3.4487613468
C     -1.356444504     -1.7340248009     -3.1801717496
C     -2.4705912903     -2.089824627     -1.2009560545
C     -2.8307189755     -0.0395365408     -2.4797262108
C     -2.5847937744     -1.4517501976     -2.4213519925
C     -2.66905903     2.0366866284     -1.2258611683
C     -2.5074732438     2.7007765198     0.
C     -2.66905903     2.0366866284     1.2258611683
C     -3.151434809     0.679931057     -1.2740505272
C     -2.8307189756     -0.0395365408     2.4797262108
C     -2.5847937745     -1.4517501976     2.4213519925
C     -2.4705912903     -2.089824627     1.2009560545
C     -2.9404576814     -1.4798988536     0.
C     -3.151434809     0.679931057     1.2740505272
C     -3.2784703393     -0.0503162264     0.


