60

 C     3.8928829164     -0.7045840519     -0.6491955545
C     3.8928829164     0.7045840519     -0.6491955545
C     3.277513599     1.1453667178     -1.9019638879
C     3.277513599     -1.1453667178     -1.9019638879
C     2.8189909835     0.     -2.6288136209
C     2.3909429302     -2.1930657549     -1.5952314611
C     3.3324176476     -1.4307707865     0.4194493954
C     2.427368914     -2.4310295618     -0.1571170484
C     2.9703427208     -0.7501188147     1.6364238602
C     3.3324176476     1.4307707865     0.4194493954
C     2.9703427208     0.7501188147     1.6364238602
C     2.3909429302     2.1930657549     -1.5952314611
C     2.427368914     2.4310295618     -0.1571170484
C     1.1664278425     2.2816320104     -2.2640452464
C     1.4862165319     0.     -3.2046936105
C     0.7283029517     1.213890452     -3.1195983503
C     1.1664278425     -2.2816320104     -2.2640452464
C     0.7283029517     -1.213890452     -3.1195983503
C     0.     -2.8147725142     -1.5901001589
C     1.2812925863     -2.8537357467     0.5316421187
C     0.     -3.0462214685     -0.1977551091
C     2.0505863628     -1.4222633503     2.4591852222
C     1.2353628828     -2.509603577     1.9247645051
C     1.2447142958     -0.7041381005     3.4526430473
C     2.0505863628     1.4222633503     2.4591852222
C     1.2447142958     0.7041381005     3.4526430473
C     1.2812925863     2.8537357467     0.5316421187
C     1.2353628828     2.509603577     1.9247645051
C     0.     2.8147725142     -1.5901001589
C     0.     3.0462214685     -0.1977551091
C     -0.7283029517     1.213890452     -3.1195983503
C     -1.1664278425     2.2816320104     -2.2640452464
C     -0.7283029517     -1.213890452     -3.1195983503
C     -1.1664278425     -2.2816320104     -2.2640452464
C     -1.4862165319     0.     -3.2046936105
C     -2.3909429302     -2.1930657549     -1.5952314611
C     -1.2812925863     -2.8537357467     0.5316421187
C     -2.427368914     -2.4310295618     -0.1571170484
C     0.     -2.4734386384     2.5931916114
C     0.     -1.3682758643     3.5542576923
C     -1.2353628828     -2.509603577     1.9247645051
C     -1.2447142958     -0.7041381005     3.4526430473
C     -2.0505863628     -1.4222633503     2.4591852222
C     0.     1.3682758643     3.5542576923
C     0.     2.4734386384     2.5931916114
C     -1.2447142958     0.7041381005     3.4526430473
C     -1.2812925863     2.8537357467     0.5316421187
C     -1.2353628828     2.509603577     1.9247645051
C     -2.0505863628     1.4222633503     2.4591852222
C     -2.3909429302     2.1930657549     -1.5952314611
C     -2.427368914     2.4310295618     -0.1571170484
C     -2.8189909835     0.     -2.6288136209
C     -3.277513599     -1.1453667178     -1.9019638879
C     -3.277513599     1.1453667178     -1.9019638879
C     -3.3324176476     -1.4307707865     0.4194493954
C     -2.9703427208     -0.7501188147     1.6364238602
C     -2.9703427208     0.7501188147     1.6364238602
C     -3.3324176476     1.4307707865     0.4194493954
C     -3.8928829164     -0.7045840519     -0.6491955545
C     -3.8928829164     0.7045840519     -0.6491955545


