60

 C     0.509758865     -0.4513678246     -4.6279050534
C     -0.509758865     0.4513678246     -4.6279050534
C     -0.0682917636     1.6471202312     -3.9244632619
C     1.6775880893     0.1213862745     -3.9179924461
C     1.3022520785     1.4408130018     -3.4465516337
C     2.033801609     -0.815790734     -2.9572300397
C     0.0682917636     -1.6471202312     -3.9244632619
C     1.070742626     -1.9670325716     -3.0061258113
C     -1.6775880893     -0.1213862745     -3.9179924461
C     -1.3022520785     -1.4408130018     -3.4465516337
C     -1.070742626     1.9670325716     -3.0061258113
C     -2.033801609     0.815790734     -2.9572300397
C     -0.7434623911     2.6462049645     -1.8156185444
C     1.6239048706     1.8528416965     -2.1284237677
C     0.670811163     2.7363865589     -1.4463938026
C     2.5361755087     -0.4064063353     -1.6699470047
C     2.4349448557     0.9808818399     -1.2644127919
C     2.5486575091     -1.4063924087     -0.6759216281
C     0.7434623911     -2.6462049645     -1.8156185444
C     1.7030006257     -2.5902642555     -0.7721486981
C     -1.6239048706     -1.8528416965     -2.1284237677
C     -0.670811163     -2.7363865589     -1.4463938026
C     -2.5361755087     0.4064063353     -1.6699470047
C     -2.4349448557     -0.9808818399     -1.2644127919
C     -1.7030006257     2.5902642555     -0.7721486981
C     -2.5486575091     1.4063924087     -0.6759216281
C     -1.3919334547     2.9953351348     0.5460880826
C     0.9638296924     3.1224093862     -0.1401783071
C     -0.0880170729     3.4337012748     0.8345405675
C     2.6367183155     1.3119896112     0.1347898376
C     2.075278868     2.5452951558     0.5919049825
C     2.7185054408     -1.0973105637     0.7122890446
C     2.8425179741     0.2517099441     1.1408739145
C     1.3919334547     -2.9953351348     0.5460880826
C     2.0540856072     -2.1064953091     1.496204869
C     -0.9638296924     -3.1224093862     -0.1401783071
C     0.0880170729     -3.4337012748     0.8345405675
C     -2.6367183155     -1.3119896112     0.1347898376
C     -2.075278868     -2.5452951558     0.5919049825
C     -2.7185054408     1.0973105637     0.7122890446
C     -2.0540856072     2.1064953091     1.496204869
C     -2.8425179741     -0.2517099441     1.1408739145
C     -1.473508711     1.7955905532     2.7587783665
C     0.4341406654     3.2495739782     2.1302767689
C     1.8167468107     2.7555017298     1.9725018963
C     -0.2013715506     2.431006517     3.0937224256
C     2.492507659     0.4818489916     2.5183919265
C     2.050155131     1.7853671336     2.9288921381
C     0.843220297     1.6342619209     3.7234706446
C     1.473508711     -1.7955905532     2.7587783665
C     1.7287234723     -0.4872232639     3.2628692238
C     0.6582036075     0.2701405511     3.9477180018
C     -0.4341406654     -3.2495739782     2.1302767689
C     -1.8167468107     -2.7555017298     1.9725018963
C     0.2013715506     -2.431006517     3.0937224256
C     -2.492507659     -0.4818489916     2.5183919265
C     -1.7287234723     0.4872232639     3.2628692238
C     -0.6582036075     -0.2701405511     3.9477180018
C     -2.050155131     -1.7853671336     2.9288921381
C     -0.843220297     -1.6342619209     3.7234706446


