60

 C     -1.9931533198     -3.9370155526     -0.2657561905
C     -0.8753258143     -3.9714584568     -1.11982115
C     0.3327784756     -3.937318168     -0.3227144374
C     -1.5201352114     -3.7400523856     1.0608447448
C     -0.0809210832     -3.7697189523     1.0638894171
C     -2.1515139018     -2.5583505147     1.5853539677
C     -2.7449204635     -2.7431312333     -0.621740718
C     -2.9446584967     -1.9187441405     0.5121554625
C     -1.0368205052     -2.9542288817     -2.1422472768
C     -2.2301649953     -2.1589703096     -1.8148577656
C     0.0928355164     -2.3161323071     -2.6294147877
C     1.5075651012     -3.2898450187     -0.8067000944
C     1.4081216768     -2.5510521509     -2.0407937365
C     2.4240705581     -2.7720254682     0.1751009523
C     0.6666227669     -2.8979313989     1.941937502
C     1.9597172559     -2.5081240614     1.5448223686
C     -1.4717924198     -1.7528385078     2.4884274871
C     -0.0716864903     -1.9374761741     2.7480667394
C     -1.7594083068     -0.3420023642     2.5395233362
C     -2.9916663624     -0.5125180424     0.3791154281
C     -2.5844374596     0.2793408311     1.5513952221
C     -2.2546754549     -0.7554758675     -1.9814220272
C     -2.8171884429     0.0920320602     -0.9326586278
C     0.0087977297     -0.9366056619     -3.012999944
C     -1.1880472308     -0.1747660337     -2.8007034473
C     2.1594485777     -1.343957676     -2.2401192342
C     1.3130728458     -0.3414763457     -2.8445790507
C     3.293011368     -1.7205619659     -0.1549142707
C     3.1121086071     -0.9238365558     -1.3073265342
C     2.5593088562     -1.2509926794     2.0084588281
C     3.4158674155     -0.8147360532     0.9877550912
C     0.4654910677     -0.6543093487     3.106392595
C     -0.6013489745     0.3228506995     3.0649810658
C     1.7845794171     -0.2714758724     2.7312834018
C     -0.3781043362     1.7033345576     2.8177539783
C     -2.4782487024     1.6703867591     1.4305542696
C     -1.4591630521     2.4233976263     2.1790359283
C     -2.6886494783     1.5466537756     -1.0361909033
C     -2.7234292166     2.3373217572     0.1817346116
C     -1.0380048495     1.2083102073     -2.8327761546
C     -1.9460957646     2.1037177759     -2.1300341179
C     1.4478604751     1.0332684836     -2.5534857771
C     0.2820481032     1.8165193437     -2.8190044219
C     3.187655451     0.499711502     -0.9076388012
C     3.4307053843     0.5218654891     0.5296918098
C     2.3882198469     1.4872945805     -1.5061616885
C     2.0097961399     1.1117420086     2.4362110063
C     0.957827083     2.1223983891     2.5591032903
C     2.8127942589     1.4957567156     1.3172184401
C     2.0358986923     2.6989654323     -0.7116414178
C     1.2043688606     3.1670781223     1.6015205127
C     2.2218540221     2.6596674818     0.6951743469
C     -1.2087548455     3.5907584912     1.4663092475
C     -2.0672412097     3.6123074637     0.2687308098
C     0.1432441195     3.9461518962     1.0988891157
C     -1.2677419212     3.3604486369     -2.0017647923
C     0.1309091152     3.0913429625     -2.2684503505
C     0.9805497906     3.5658294423     -1.1866944376
C     -1.2892403487     4.05298009     -0.7876253857
C     0.1254103799     4.235695768     -0.2911937352


