60

 C     -0.5875566989     -4.6353897409     0.1436137863
C     0.6770561722     -4.2937514753     0.7818385358
C     0.4238850661     -3.6162850484     1.9790639395
C     -1.6303451943     -3.9511713809     0.8828340436
C     -1.0494631385     -3.3658541528     2.0131357803
C     -2.3455444583     -3.0422919862     0.0122000496
C     -0.5476790211     -3.9815258997     -1.0993295773
C     -1.6745447149     -3.0909940077     -1.2653534221
C     1.5439607214     -3.6347941982     -0.1624215305
C     0.7511630224     -3.4191901009     -1.3710918413
C     2.4095336202     -2.6010873209     0.260764828
C     1.0644663078     -2.3949735066     2.2900353618
C     2.1736299513     -1.9109773834     1.5323074439
C     -1.2622027727     -2.0079120509     2.3697181096
C     0.0450761027     -1.4350931617     2.6676806809
C     -2.8227014458     -1.7768915085     0.4956958459
C     -2.2425841648     -1.2060160467     1.722704724
C     -3.1883443181     -0.8776835102     -0.5153877711
C     -1.5953076453     -1.9326046367     -2.0851691167
C     -2.6373097758     -1.0057203514     -1.8426059351
C     0.8703122825     -2.2150161174     -2.1331271463
C     -0.303718636     -1.4247126958     -2.5405545895
C     2.9216732364     -1.8059569304     -0.8099649013
C     2.0897076685     -1.5358764704     -1.9847234729
C     3.6367569465     -0.6576900303     -0.5285121104
C     2.520270855     -0.5007517519     1.6626711412
C     3.4817490604     0.0226767697     0.7229814099
C     0.2556366683     -0.0596431589     2.6345521999
C     1.5780849355     0.438924729     2.2683734914
C     -2.1415359456     0.2268401962     1.8806899202
C     -0.9373546824     0.7793588318     2.5193280214
C     -3.3861858525     0.543376649     -0.2406531431
C     -2.9055854477     1.1031651696     1.002737681
C     -2.5346893894     0.3077397461     -2.3367753169
C     -3.1955359703     1.246055854     -1.4399299033
C     -0.1387738092     0.0047451826     -2.780200349
C     -1.3031050565     0.8474022374     -2.7261879084
C     2.2839077862     -0.1574314366     -2.3752335255
C     3.3942795271     0.3164559184     -1.6122416034
C     1.1542415251     0.6798344023     -2.6121163195
C     3.4953670547     1.4189762787     0.4162395016
C     3.3692375121     1.5649755709     -1.0618344861
C     1.6987948927     1.8686738889     2.0293741372
C     2.6282635543     2.3131774673     0.998784784
C     -0.7499648688     2.1711592857     2.5299096399
C     0.5968131235     2.7220096807     2.2613768647
C     -2.6215827484     2.4998158423     0.9876148217
C     -1.7043460452     3.0444615151     1.9395780215
C     -2.4743592052     2.4647274775     -1.4621125523
C     -1.2636356934     2.2433101302     -2.2520939194
C     -2.423160398     3.2192221422     -0.2922220345
C     1.2002126821     2.0809469879     -2.124099687
C     2.3168670066     2.47334833     -1.3363261845
C     2.0939613107     3.1895254627     -0.078403558
C     -0.0490573328     2.851086247     -1.8914336186
C     0.4136664769     3.9310234762     1.4826914082
C     -0.9611077947     4.0884392434     1.2974492836
C     -1.2972674473     4.0700975763     -0.1149253748
C     0.9882534194     3.935516228     0.1424813418
C     -0.1022791164     3.8702174429     -0.8533959996


