60

 C     0.0516697392     -4.0910342794     0.8611480583
C     1.1954975461     -3.9096537323     0.1312128452
C     0.8510629403     -3.7209262882     -1.3002847042
C     -1.0646580011     -4.0741634561     -0.1050222845
C     -0.5608686957     -3.6278683128     -1.4016549057
C     -2.0914756138     -3.3921194857     0.4717013429
C     -0.2823417425     -3.1767964127     1.9586556598
C     -1.6761426105     -2.9094315801     1.8175946336
C     0.5815919621     -2.1106056301     2.3070754312
C     2.1537976049     -2.9273903831     0.4960402535
C     1.9167188541     -2.1060640076     1.6580438196
C     1.7075691976     -2.7257580351     -1.7918447821
C     2.6239572459     -2.2981567998     -0.7204580784
C     1.1701681137     -1.733497429     -2.6122998579
C     -1.1578589581     -2.4715962625     -2.0451038925
C     -0.2586478721     -1.6123193523     -2.7385038995
C     -2.7874769598     -2.3278043152     -0.1864661862
C     -2.3516792201     -1.8207807154     -1.4480562677
C     -2.2181623637     -1.6564907949     2.0148667111
C     -3.1220537776     -1.4009566938     0.8700233773
C     -0.0038471895     -0.8022958261     2.6968354096
C     -1.4275586005     -0.5695571373     2.5241667607
C     0.869331207     0.3634961693     2.812673156
C     2.6998280441     -0.9552168644     1.7183509703
C     2.2660145039     0.2390805553     2.4653438617
C     3.1976447189     -1.0180238017     -0.7062959162
C     3.4934625496     -0.5144063772     0.6053988968
C     1.747037841     -0.4074336366     -2.6188514723
C     2.8128850747     -0.0380429914     -1.7575052646
C     -0.5449311069     -0.2037024738     -2.963473442
C     0.6957678996     0.522708482     -2.9295140598
C     -2.6814367375     -0.4194371501     -1.7556082081
C     -1.7581541904     0.3987479342     -2.5689168573
C     -3.502672665     -0.1437845223     0.565692131
C     -3.4799942491     0.2953230776     -0.8109100942
C     -1.955441183     0.7832064491     2.3148582483
C     -3.0970695252     0.9760362603     1.4315494964
C     0.3218452889     1.6765380355     2.7016769557
C     -1.0793251354     1.8851692824     2.4268291708
C     1.0600059958     2.7652774222     2.0828287915
C     3.0077529735     1.3309767536     2.0089394991
C     3.7235587941     0.8729575308     0.8056512557
C     2.3768629623     2.5769818935     1.685418006
C     2.9450288532     1.3651820714     -1.4627667928
C     3.5195092317     1.7883938567     -0.2052913003
C     2.753448515     2.9135952954     0.3221561878
C     0.750243073     1.8797148713     -2.4829843531
C     1.9032571658     2.2889995248     -1.7605444792
C     1.7602366818     3.2167474795     -0.6058599311
C     -1.7236049206     1.8385547357     -2.404483025
C     -0.4843714802     2.5323198704     -2.2520035261
C     -3.4633521061     1.7218243401     -0.7295006752
C     -3.2462097148     2.137784827     0.6791005832
C     -2.6624608253     2.4920555723     -1.5348729389
C     -1.2110098752     3.072219909     1.5929494228
C     0.1270958008     3.455221803     1.2066833015
C     0.4489083642     3.6348870117     -0.178234315
C     -0.625220494     3.4933079396     -1.127477588
C     -2.2614481954     3.1767191061     0.6770333497
C     -1.9522845334     3.4712869875     -0.7057083896


