60

 C     1.100035598     -4.9668277092     0.328484143
C     -0.2500488467     -5.2119307286     0.3281219018
C     -0.7994006607     -4.9403051526     -0.9985812642
C     1.4506008482     -4.3382956627     -0.992279944
C     0.2950051902     -4.2982046294     -1.7945811005
C     2.1232281262     -3.1244540649     -0.7176518478
C     1.3880095892     -3.9759567556     1.3505451241
C     2.1205408967     -2.9524466391     0.7576705762
C     -0.8813334452     -4.3053444863     1.3233497574
C     0.1382178429     -3.5395044802     1.9917912943
C     -1.7469580653     -3.9528174577     -0.8282769281
C     -1.8669960677     -3.5838630174     0.6248560117
C     -0.1604869045     -3.0186249061     -2.276142236
C     -1.5057700808     -2.8448540983     -1.7610117675
C     1.8755522847     -1.9440817608     -1.47180304
C     0.6603973746     -1.8489836209     -2.2495653318
C     2.4308003055     -0.7276693101     -0.9533489576
C     2.0939420619     -1.6377285951     1.2889297066
C     2.7065104616     -0.6538975684     0.4652637892
C     -0.0686614951     -2.1501583967     2.2642649852
C     1.0423077472     -1.2092147321     2.1680633565
C     -2.1270722505     -2.2442540785     0.9297211464
C     -1.339009831     -1.5402719441     1.9241212627
C     -2.0124806747     -1.592442131     -1.4911240785
C     -2.6346607566     -1.4169769214     -0.1703722728
C     0.0290628928     -0.5260123873     -2.3349071503
C     -1.3661722443     -0.4041710782     -2.0458537454
C     2.1681275537     0.513359088     -1.6213401616
C     0.8504689164     0.6767685947     -2.2479881283
C     2.8554790318     1.6610047354     -1.1137423231
C     2.8954877431     0.5987625012     1.0628747216
C     3.2793205656     1.6710952348     0.2793067655
C     0.8561113734     0.2270968001     2.3755986587
C     1.930294483     1.0730040727     2.0565412617
C     -1.5532511016     -0.1111595189     2.1056369692
C     -0.4844547477     0.8194267119     2.4222076836
C     -3.0344562977     -0.1724258063     0.1509104925
C     -2.7112281558     0.4137395455     1.4608997894
C     -1.9644353708     0.8938551627     -1.8000643194
C     -3.012000823     0.9175287674     -0.8185520045
C     0.2388292891     1.9942954127     -2.2934580659
C     -1.2220312224     2.123864341     -2.0656993558
C     2.3633010274     2.938878246     -1.4039097299
C     1.0879459542     3.1330842673     -1.98602305
C     2.7960338052     2.8896402143     0.892987703
C     1.8128949706     2.5094089167     1.881547352
C     2.4319115333     3.7559701517     -0.1437555723
C     -0.6501798049     2.2692701109     2.2240398645
C     0.5272107384     3.1407373418     1.9200739403
C     -2.9025843541     1.776809841     1.3519737219
C     -3.260310417     2.0830712575     -0.0764850437
C     -1.9450453561     2.7284662251     1.77211961
C     -1.7304724111     3.3478964155     -1.4866029633
C     -2.6872868291     3.2742772275     -0.4213783745
C     -2.0396641798     3.8257694947     0.811970362
C     0.5206811923     4.2950529662     -1.3197727725
C     1.2802760024     4.4977925515     -0.0417061988
C     0.3535540246     4.2908763611     1.033564224
C     -0.8038739556     4.3723577765     -1.0537860375
C     -0.9418129743     4.5197173044     0.4323277905


