60

 C     2.461064448     -3.2895816531     0.2878672781
C     1.3535245497     -3.9475661668     -0.1988529667
C     0.3353444412     -3.9837759013     0.8556314335
C     2.1202624647     -2.7919491913     1.6365459892
C     0.7622853975     -3.1112873582     1.919253258
C     2.5622946282     -1.479546191     1.7218181567
C     3.0665695962     -2.2137886113     -0.4414506458
C     3.3070844216     -1.1388324934     0.4960921631
C     2.5589371572     -1.8797561552     -1.7071140631
C     0.7117023221     -3.5156594655     -1.421662646
C     1.3310495416     -2.5066748167     -2.1719360359
C     -0.9097676324     -3.7933874512     0.2569446331
C     -0.7134677631     -3.4386616655     -1.1656951718
C     -1.9000159612     -3.1364426324     0.9992474846
C     -0.1419234453     -2.0774317648     2.416867996
C     -1.5090870763     -2.2446833362     2.0808040535
C     1.7511623184     -0.4640614158     2.3643045422
C     0.3507034949     -0.7144750216     2.6570942062
C     2.2130714526     0.8477083123     2.1562378933
C     3.430561906     0.1956290671     0.0930446816
C     3.1567320413     1.1613588592     1.1220574929
C     2.5275462355     -0.4866483133     -2.1019771494
C     3.086433755     0.545611636     -1.3011591349
C     0.5223254119     -1.4689403213     -2.7813369112
C     1.3007706287     -0.2539528527     -2.8185413581
C     -1.5275419778     -2.4385476736     -1.763498493
C     -0.8834750772     -1.4159999633     -2.6041826554
C     -2.9184125223     -2.4758467238     0.2887903768
C     -2.7318360146     -2.0609574831     -1.0480474994
C     -2.4275726824     -1.1190508956     2.0901817328
C     -3.3669638591     -1.3277342808     1.0545070073
C     -0.5865967423     0.4392340952     2.7027380425
C     -1.9949335692     0.206097889     2.4023613513
C     1.3432084842     2.0023514633     2.3712652682
C     -0.0681720882     1.7950276896     2.5651151721
C     2.9171256133     2.5223417646     0.7849636682
C     1.8411169878     3.0779439818     1.6228211129
C     2.617141838     1.8774918569     -1.558242453
C     2.6759006022     2.8808882582     -0.5247045663
C     0.6798728488     1.0280611614     -2.8216811082
C     1.3955807961     2.1089937555     -2.2493727431
C     -1.5044756709     -0.1170754094     -2.7135681458
C     -0.7481834106     1.0736795942     -2.8034935026
C     -3.316354739     -0.7218433442     -1.1711360272
C     -3.7470474657     -0.289334062     0.1702863061
C     -2.7289386984     0.2082950463     -1.9982687595
C     -2.7804947332     1.2629867283     1.8080965652
C     -3.5598189     1.0103472829     0.5860823572
C     -0.9043266772     2.8409933938     2.0230435175
C     -2.2299019556     2.5426710558     1.6680617419
C     0.9671163485     3.8459480731     0.7792474955
C     1.484786129     3.7349224746     -0.5779619596
C     0.6723186096     3.2336980293     -1.5885429429
C     -0.3893454622     3.7481813086     0.9889714522
C     -1.4754902548     2.1727608594     -2.1326801172
C     -2.6990071576     1.6287058694     -1.6404636919
C     -3.1873841223     2.0418822877     -0.3818396666
C     -2.4886542077     3.0481239215     0.3153398591
C     -0.7677419599     3.1962722215     -1.4380524998
C     -1.2966629433     3.6252842782     -0.1602213746


