60

 C     -0.9607306562     3.8059227891     0.9167401434
C     -2.2001746325     3.3328433257     0.4904553329
C     -2.1577391554     3.2063124606     -0.9730438911
C     -0.1426879439     4.0454682592     -0.2584251754
C     -0.8462138448     3.5156611578     -1.4073930552
C     1.1812667338     3.672184699     0.0244102326
C     -0.1673735544     3.0967321578     1.8828990305
C     1.2161110505     3.2104096751     1.4279910991
C     -0.6381018408     1.8838614093     2.4582040112
C     -2.7061230768     2.1275762617     1.0110720385
C     -1.9905313395     1.4482667851     2.0674528
C     -2.7923707551     1.9857863075     -1.3190132785
C     -3.2530108895     1.3404442129     -0.100855401
C     -2.218544724     1.1774535916     -2.306051429
C     -0.1506804862     2.5854808477     -2.2907376449
C     -0.8974900821     1.4839021955     -2.8020220518
C     1.9342989846     2.9637431555     -0.9295048626
C     1.2632406613     2.3919608939     -2.0850424575
C     2.9505153541     2.0388510593     -0.5053126495
C     2.1411806533     2.2917745585     1.8241052615
C     3.145789529     1.7885853747     0.8676110096
C     0.3505317004     0.8546245929     2.8414934841
C     1.7253945806     1.1624194262     2.6495597223
C     -0.0133775157     -0.564050336     2.9013246716
C     -2.3343210608     0.1063622004     2.2363154006
C     -1.398450375     -0.8807816085     2.7789027686
C     -3.4093376833     -0.0506112467     -0.0130130617
C     -3.2100536586     -0.5900449449     1.3069514122
C     -2.3656132452     -0.2564597117     -2.2412566479
C     -3.0532138174     -0.9026238103     -1.1734800366
C     -0.2601346711     0.2188675288     -3.1011708816
C     -1.1938745078     -0.8478567166     -2.8382623888
C     1.8955326933     1.1392649588     -2.3712933841
C     2.9611892928     0.9176651377     -1.4196156899
C     1.1388095799     0.0289712477     -2.9012629699
C     3.314473746     -0.4037184667     -0.9946875875
C     3.5199885234     0.4983450589     1.2919644163
C     2.6421295509     0.1184401987     2.3873189282
C     3.5951867423     -0.6058809809     0.4081425155
C     0.9338618941     -1.6222358626     2.5255335972
C     2.2744063575     -1.2356469308     2.2558446553
C     3.002083515     -1.7530695746     1.1056021991
C     0.4484299995     -2.849562474     1.852875246
C     -1.8511801561     -2.1639269433     2.4204356658
C     -2.9685020265     -1.9611335465     1.469129965
C     -0.9818494663     -3.1014416734     1.8297132084
C     -2.7115797343     -2.2771188347     -0.9399674779
C     -2.8082760527     -2.8238626798     0.3905694297
C     -1.6372867997     -3.6373200773     0.6511981703
C     -0.7473076611     -2.1504688306     -2.4819434671
C     -1.5548649812     -2.8821288567     -1.5557382711
C     -0.9098031992     -3.7319538884     -0.5400380557
C     1.5930854782     -1.2891285908     -2.6260343792
C     2.7243796354     -1.5052356648     -1.7039039416
C     0.6712549925     -2.3820891425     -2.4951984399
C     2.4716836482     -2.7965296624     0.3758874823
C     1.1940713386     -3.3813606697     0.7737689999
C     0.4987611325     -3.7920249758     -0.4666620913
C     2.498306506     -2.7253312785     -1.0524255355
C     1.2448354194     -3.2745837477     -1.5301170941


