60

 C     -1.6623004436     -4.3315563874     1.0304959043
C     -0.7996619025     -4.7371446126     -0.0155797906
C     0.5668439172     -4.4533409635     0.3325196515
C     -0.8224770279     -3.6437728264     1.9706509935
C     0.5746049779     -3.74800019     1.5825304406
C     -1.3284493805     -2.3307473859     2.2362268197
C     -2.5004691216     -3.2853599383     0.4753705135
C     -2.4678672506     -2.1451228067     1.3115506758
C     -1.066035234     -3.94507332     -1.1838269313
C     -2.1874816311     -3.0671250514     -0.9191841212
C     1.2188189456     -3.8527126811     -0.8116095778
C     0.1577308865     -3.4200071237     -1.7436899229
C     2.2517896327     -3.0055441397     -0.5738599071
C     1.4595903839     -2.6397519454     1.774970884
C     2.5144913923     -2.5378246902     0.798874016
C     -0.4782825996     -1.2335653306     2.4972097466
C     0.9706466999     -1.3839596493     2.3614116985
C     -1.0854893321     0.1009007988     2.4034880504
C     -2.6954648993     -0.8853164502     0.7706319261
C     -2.2793342573     0.2347360834     1.5991028174
C     -2.1827835987     -1.7655015974     -1.4519285865
C     -2.7483754753     -0.6911061585     -0.6598560452
C     0.1919388277     -2.1282912861     -2.2997065164
C     -1.0784661794     -1.3817782255     -2.3600884157
C     2.4923699504     -1.8596373496     -1.4587980862
C     1.4564269513     -1.3424352723     -2.2705951686
C     3.2190009027     -1.352223281     0.6720914094
C     3.3171031454     -0.956880632     -0.7520217011
C     1.7491964216     -0.1617835289     2.2370968889
C     2.9281317436     -0.1994982184     1.4164457219
C     -0.3006424253     1.2846902268     2.6743770956
C     1.1532765854     1.1575901617     2.4849602757
C     -0.9282949593     2.5631505368     2.4757110625
C     -2.6984064885     1.5013311797     1.1637619819
C     -2.1441027715     2.6375017878     1.7409462687
C     -2.7399860134     0.6609402837     -1.1748049926
C     -2.9168883711     1.7461341081     -0.2816971393
C     -1.0302015827     -0.0745105321     -2.7980946193
C     -2.0125465923     0.9174916386     -2.3845236057
C     1.452356374     0.0977973468     -2.5250872005
C     0.236789289     0.6411435735     -3.031872029
C     3.2190370823     0.4235114401     -0.8527487648
C     3.214369469     0.9180187363     0.5272735176
C     2.3297163662     1.0241672535     -1.8084546574
C     1.8346761476     2.2983507124     1.9602719939
C     2.7031645976     2.1329948639     0.8118879983
C     -0.1599735479     3.7121838318     2.0252624493
C     1.1607805462     3.5358391198     1.7178838754
C     -2.0221744948     3.6647615965     0.6870226436
C     -2.4146181071     3.067713534     -0.5631357316
C     -0.8223641059     4.3211860156     0.8470071038
C     -1.4479703142     2.1881907947     -2.6018424525
C     -0.0385168835     2.0033373311     -2.9549243098
C     -1.5553675838     3.2525413083     -1.6854939831
C     1.9162390063     2.4134430019     -1.5581281041
C     2.2388191477     3.0133567659     -0.270537754
C     1.4102587661     3.967222313     0.3166185223
C     0.1462173339     4.3534483945     -0.2452729515
C     0.7342145168     2.9127535711     -2.1782094479
C     -0.2036073323     3.8131434639     -1.4880806329


