60

 C     1.0104145932     -3.9382976651     1.4993912487
C     -0.443800189     -3.8155871198     1.4884601651
C     -0.9209130459     -3.8013422067     0.1600911375
C     1.4799748425     -3.884926196     0.1969190656
C     0.3038636084     -3.9150730711     -0.6790220626
C     2.4254437339     -2.7741303962     0.0837810532
C     1.5384636112     -2.817948429     2.2347715613
C     2.4633645818     -2.1293106082     1.3910444666
C     -0.7881238866     -2.7691591574     2.4017035971
C     0.4540146963     -2.0943875753     2.8010022583
C     -1.8758555262     -1.9778702222     2.0954327671
C     -1.975855947     -2.8949485873     -0.222942843
C     -2.5595438929     -2.1148696649     0.8243180496
C     -1.9704407202     -2.3067211563     -1.5748612531
C     0.3762054708     -3.2401049305     -1.8523837207
C     -0.8165545949     -2.5673091141     -2.410318514
C     2.4513589841     -1.9857895224     -1.0827611404
C     1.5596196959     -2.3995798609     -2.1584117955
C     2.8293162249     -0.5700683624     -0.9871638162
C     2.60409463     -0.7406974274     1.5035556224
C     3.0845423009     -0.0054995528     0.3348739098
C     0.515990859     -0.6709900774     2.8991309078
C     1.7245742678     -0.0343006101     2.4444163018
C     -1.9100025819     -0.5871248066     2.4949851567
C     -0.7451103455     0.1013312321     2.898535328
C     -3.2127999387     -0.8580905605     0.5644081867
C     -2.9055617521     0.061800819     1.6598859318
C     -2.6303759394     -1.0648077763     -1.8000756706
C     -3.3089265846     -0.3588721894     -0.7285897648
C     -2.0736993578     -0.0351010836     -2.6615982961
C     -0.3448745659     -1.5896891672     -3.2788203581
C     1.1085377822     -1.4556117332     -3.0605223284
C     -0.8819738159     -0.2821973888     -3.3378875093
C     2.3886607363     0.3533645692     -2.0260973365
C     1.4353753334     -0.0818825834     -2.9866829237
C     0.2150710765     0.6710177023     -3.2023917282
C     2.3523831162     1.7573411153     -1.7640661445
C     3.2217711284     1.4005706351     0.4820342269
C     2.9626041778     2.2642084381     -0.6118090939
C     1.7676935787     1.3931210776     2.4452867285
C     2.6911116272     2.0716487458     1.6548786832
C     -0.7146088751     1.5613797186     2.7213405527
C     0.5419418018     2.2036028778     2.60386105
C     -2.8883215813     1.4183764183     1.4669570281
C     -1.8405244456     2.2197734774     2.1008253175
C     -3.1932239906     1.0689850224     -0.9532414678
C     -2.3293306274     1.2694430428     -2.0865833517
C     -3.126918735     1.9587179734     0.1299274795
C     0.0071031272     1.9511439832     -2.6109377081
C     1.1595393516     2.5574661955     -2.0480621638
C     -1.3298028543     2.2985766455     -2.0884587676
C     2.1928244674     3.4255899359     -0.1447198182
C     2.0393109461     3.3095625948     1.2212845109
C     0.7231348435     3.3947719024     1.8062369321
C     1.0531679075     3.581423954     -1.0183896712
C     -1.6265943852     3.3390116192     1.2673351682
C     -2.336356836     3.1168626867     0.0079950638
C     -1.4032199273     3.2852824107     -1.0439259713
C     -0.3386949109     3.8559017732     1.0019410842
C     -0.1894632491     3.8720123362     -0.4658850215


