60

 C     4.5313211309     1.53341846     0.6178478913
C     4.6542083862     0.8325577794     -0.664727224
C     4.7735900789     -0.5324724926     -0.4207266469
C     4.3074358753     0.5042736731     1.6459615116
C     4.6090717652     -0.7397142042     1.0627352584
C     3.0141309749     0.7146142414     2.2436847717
C     3.400625827     2.3184803783     0.5483957788
C     2.4847143411     1.9211833563     1.6321306539
C     3.6089016549     1.3197510991     -1.5561455218
C     2.8577218261     2.3210535254     -0.8157035503
C     2.872380793     0.4053248697     -2.318202366
C     3.9150386196     -1.4806150534     -1.090095721
C     3.0160549025     -1.0255485562     -2.0945192897
C     3.7201823623     -1.7974610417     1.232498096
C     3.3890677966     -2.3658583325     -0.0848683852
C     2.0806051681     -0.3642825015     2.4341850581
C     2.5019121222     -1.6591695577     1.9651566349
C     0.6435847399     -0.0640251518     2.4490404701
C     1.1330204572     2.1509663425     1.4891075644
C     0.1678606092     1.2656361808     2.1401449635
C     1.486589279     2.4877509665     -0.9828008075
C     0.7005446412     2.7723129165     0.2284535838
C     1.4700192855     0.6649242636     -2.5897059921
C     0.7719324418     1.7575099156     -2.0278263332
C     1.69097259     -1.5901668408     -2.1952108282
C     0.7650430126     -0.5757820493     -2.6738322825
C     2.0501986229     -2.7569443374     -0.0781251944
C     1.5177544137     -2.4325615591     1.2572421556
C     1.1922729433     -2.4716816419     -1.1937124043
C     -0.3308797303     -1.1026766753     2.19874528
C     0.1661764302     -2.2425495317     1.4277503385
C     -1.7609330437     -0.8426615457     2.2386453342
C     -1.2419849152     1.5562876265     2.0217317333
C     -2.25508664     0.5343624799     2.2775720329
C     -0.6291892425     2.9721986699     0.0749566533
C     -1.5822587145     2.6378383954     1.1362760326
C     -0.6783638192     1.7385155375     -2.0481107956
C     -1.3194595966     2.6784907805     -1.182965589
C     -0.6337213851     -0.6675325262     -2.5008498678
C     -1.4325679873     0.5459511857     -2.3829357375
C     -0.2278338091     -2.562287872     -0.9919615823
C     -0.6974333828     -2.7156465863     0.3585796433
C     -1.1493517169     -1.8839456236     -1.889395856
C     -2.6131648829     -1.8629401877     1.6963917121
C     -2.0582713551     -2.7005842875     0.6281363754
C     -3.9746512107     -1.6034142581     1.3372298375
C     -3.6234163633     0.7821743783     1.869672965
C     -4.4406905848     -0.2896320981     1.3933149394
C     -2.8654395175     2.7340380607     0.5774686521
C     -2.6791105638     2.602169018     -0.9067025194
C     -3.8655994283     1.8736955745     0.9459755663
C     -2.8739494508     0.4485060734     -2.0531146207
C     -4.9060882946     0.0521238486     0.0063112699
C     -3.5184833928     1.5740260019     -1.3737658036
C     -4.4651000539     1.3142417708     -0.2852997337
C     -2.5224556387     -1.9701297708     -1.636288036
C     -2.9850402558     -2.6666669624     -0.4480288996
C     -4.2271403932     -2.1588749436     -0.0106978287
C     -3.4220835173     -0.8481076079     -1.8091510771
C     -4.5131843045     -1.0404435728     -0.8298721639


