60

 C     1.5431764484     -3.809442065     -0.5435290783
C     0.4711028404     -3.8561882592     -1.3965492337
C     -0.766133597     -3.984443032     -0.6045702979
C     1.0210296993     -3.8715700604     0.8409512209
C     -0.4286338722     -3.9619908996     0.7851817512
C     1.6476108179     -2.8737613993     1.5646135379
C     2.507651162     -2.7424916983     -0.6269621833
C     2.6401924368     -2.1824799681     0.6781407528
C     2.4460297779     -1.8489982291     -1.7141834428
C     0.269132902     -2.8254092331     -2.3908595841
C     1.2865986799     -1.8820214067     -2.5989646568
C     -1.7020867851     -3.0833162532     -1.1360154302
C     -1.0690917125     -2.3486451878     -2.2468090468
C     -2.6116088026     -2.3940716915     -0.2673212553
C     -1.1866454893     -3.1421514586     1.641294022
C     -2.3667106986     -2.4640845268     1.1446863575
C     0.8912392285     -2.0888805412     2.5248994172
C     -0.5303903728     -2.2545226633     2.5717538326
C     1.4139034551     -0.8383775042     2.865636128
C     2.9832241941     -0.8254425549     0.8781944654
C     2.5532275683     -0.2529386545     2.1186629265
C     2.831337075     -0.4782391782     -1.5427399602
C     3.1479447387     0.0808428638     -0.2793200909
C     0.9610946953     -0.5278786045     -2.9657612399
C     2.053160844     0.297807445     -2.5003331774
C     -1.4172598361     -0.9788927119     -2.5446664221
C     -0.3642220762     -0.022654572     -2.9544392945
C     -3.1941206767     -1.2040941927     -0.7946737827
C     -2.5773012815     -0.488786413     -1.9243478861
C     -3.6404074911     -0.2064756539     0.0834124793
C     -2.5457254075     -1.2737880576     1.9496848423
C     -1.3766534509     -1.0896586382     2.7572844952
C     -3.1929362962     -0.1537870365     1.4309059552
C     0.5614284369     0.2634614939     3.2165868296
C     -0.8410298257     0.2137909693     2.9908517248
C     2.5219759327     1.1307596994     2.2796662439
C     1.2844564866     1.4563964265     2.9247795432
C     2.9981026655     1.5435969186     -0.1107684637
C     2.6907237776     2.050045179     1.1829753564
C     1.8922797249     1.6376496307     -2.3664666411
C     2.5033530174     2.328943531     -1.2250068116
C     -0.5569362454     1.4277296131     -2.7803523107
C     0.6179443155     2.2517105196     -2.683292487
C     -2.7624765094     0.9467010421     -1.7342255348
C     -3.4521114269     1.1004534208     -0.5187839417
C     -1.7717871003     1.9097016724     -2.1266311084
C     -2.6841208262     1.1972040041     1.6755540764
C     -1.495365463     1.4136230219     2.3989403044
C     -2.990940387     1.9979076847     0.4769318635
C     0.7205309886     2.6007375276     2.3206277579
C     1.7073096231     3.1047729536     1.3605552672
C     -0.6867350518     2.6187593393     2.0494701895
C     1.7707914255     3.505620347     -1.0376199981
C     0.610861945     3.4756745532     -1.9620923436
C     1.2739158028     3.8511272715     0.2625261168
C     -1.7018977879     3.0916636082     -1.2992889501
C     -2.1729519614     3.025316195     0.0774392787
C     -1.089262641     3.4579238301     0.9525191609
C     -0.516545485     3.8749349804     -1.2626221971
C     -0.1292423486     4.1006265034     0.1344710536


