60

 C     0.1170508052     -4.1234933559     0.8454138739
C     -0.5423091735     -4.1697459198     -0.3696621363
C     -1.8712250901     -3.5607307182     -0.2073102182
C     -0.7689265809     -3.4317985887     1.786337009
C     -1.9886848254     -3.0404894108     1.1120422458
C     -0.0292837141     -2.4735269943     2.4736705887
C     1.4184947832     -3.5037058689     0.9315681845
C     1.3602491446     -2.5205375998     1.990983065
C     2.1123989823     -3.1767945542     -0.2302151381
C     0.0555110759     -3.6678430133     -1.5765728253
C     1.4201190283     -3.3213613135     -1.5329821942
C     -2.0806197521     -2.7398826895     -1.3346415598
C     -0.8884138423     -2.7371241265     -2.1844304264
C     -2.7721130588     -1.5478535798     -1.145999777
C     -2.5360026847     -1.7284981631     1.3251190406
C     -3.1238066081     -1.1039785535     0.1783654518
C     -0.6303732672     -1.2224451502     2.8862171604
C     -1.9369881531     -0.8432872943     2.3307402264
C     0.2779565014     -0.2303712977     3.2746083085
C     2.1455480744     -1.3469189868     1.9941602071
C     1.680765678     -0.3113239596     2.8594414815
C     2.8875207892     -1.9381184918     -0.2787794795
C     2.8997270848     -0.9814584444     0.7857264495
C     1.8458348359     -2.2619604075     -2.3588417673
C     2.8090142323     -1.4600932031     -1.6104477322
C     -0.4659317995     -1.5202266311     -2.8061000602
C     0.9485708474     -1.351333169     -2.9488028677
C     -2.5008800103     -0.3839144448     -1.9698878111
C     -1.2996899713     -0.2966242143     -2.7174298412
C     -3.316143653     0.3204223973     0.1003849593
C     -3.0252842948     0.750844913     -1.2658198163
C     -2.2351043783     0.5488007811     2.2771317208
C     -2.955533637     1.1319678487     1.1588450582
C     -0.083351439     1.1792972669     3.2823089601
C     -1.3162341898     1.5577658687     2.7265926177
C     2.1220362211     0.9999184004     2.6625196269
C     1.0636238596     1.9452294143     2.9871790721
C     3.0743268978     0.4390585358     0.4510707857
C     2.7285370279     1.4048923474     1.4445491275
C     2.6794942479     -0.1093206829     -1.9357882105
C     1.5330144893     -0.0070523582     -2.8198741892
C     2.9289217412     0.8780336308     -0.9399440453
C     -0.7056670088     1.0399899178     -2.8871977242
C     0.7693657636     1.1552834398     -2.870537165
C     -2.539635731     2.0110558458     -1.5104569776
C     -1.4292196291     2.1756171974     -2.4288831753
C     -2.4579142505     2.480833932     0.9189250801
C     -1.3922364171     2.7283785888     1.8621416007
C     -2.3521038198     2.9560948903     -0.3978324348
C     1.0457482808     2.9651209468     2.0096047523
C     2.1863690599     2.7248679361     1.1202400611
C     -0.2082145222     3.4603387147     1.4797287096
C     2.4085399718     2.1549273961     -1.2441719608
C     1.400679737     2.3174136463     -2.2696611443
C     2.0994704887     3.1305731941     -0.2012476646
C     -0.7592957874     3.3932586363     -2.0278115508
C     -1.2820219551     3.8092082407     -0.7487987398
C     -0.1722824697     4.033855771     0.1545903205
C     0.6321633212     3.4715315145     -1.9540630188
C     1.0144390432     3.9472322727     -0.6360145934


