60

 C     -0.4837689471     -4.3125641112     0.0643274179
C     -0.8981770026     -3.8892229327     -1.2088750123
C     -2.1536771942     -3.1653408413     -1.0319963839
C     -1.3642243105     -3.6404929169     1.0660793873
C     -2.3874030302     -2.9416087774     0.3582699143
C     -0.5529243733     -2.9935169101     2.0170243899
C     0.8240705235     -4.118356953     0.4560895352
C     0.8096879654     -3.4167423874     1.7655524972
C     1.747866453     -3.4283573978     -0.3804354463
C     -0.0477761346     -3.0736212168     -2.0151721412
C     1.3013127159     -2.8121266699     -1.6152552311
C     -2.1875569121     -2.0784775017     -1.9285861299
C     -0.87714534     -1.9632195005     -2.5329797891
C     -2.8793845297     -0.9307220087     -1.5315118835
C     -2.8039511863     -1.6502439991     0.8220843145
C     -3.3056659594     -0.7578725498     -0.1636010758
C     -0.8231372206     -1.6271115655     2.4143356582
C     -2.0912337942     -1.0560646471     1.9724001266
C     0.2932596555     -0.740778947     2.7131261124
C     1.844323241     -2.5190951332     1.802257828
C     2.579070362     -2.6597786217     0.5162086681
C     1.6545689586     -1.1885090923     2.3796305034
C     3.2924124988     -1.6003305728     0.0496796398
C     1.9015244556     -1.522681952     -2.0148283159
C     3.0168762686     -1.0536260567     -1.2778215756
C     -0.3570109989     -0.6983044223     -2.8545116096
C     1.0963190481     -0.5126112316     -2.7375128521
C     -2.4924335969     0.3444784784     -2.0379953557
C     -1.2674874863     0.4716974437     -2.7293566203
C     -3.4037124115     0.6571177664     0.0698144969
C     -2.9228873928     1.3673858417     -1.0788955965
C     -2.3094614341     0.3034754871     2.2414514633
C     -3.114260873     1.1651934697     1.3464237291
C     0.0547674497     0.6895644256     2.8736745166
C     -1.2963114322     1.1317207126     2.826618702
C     1.094512494     1.6738769185     2.5002214526
C     2.6259224875     -0.237366655     2.0355084102
C     3.5460067351     -0.4962150856     0.9416497338
C     2.3188672113     1.1815972878     2.007967944
C     3.3399002735     0.3639590206     -1.1871127837
C     3.6501798099     0.6762999575     0.193202359
C     2.9552685922     1.7546297228     0.8540675345
C     1.5722712462     0.8186706662     -2.7781610288
C     2.6479211051     1.2816046459     -1.937731415
C     -0.7096142009     1.7927802117     -2.7295935451
C     0.6621003607     1.9239056018     -2.8730963895
C     -2.2855735722     2.6439183131     -0.9571388925
C     -1.1828696687     2.8689102816     -1.8367268599
C     -2.7031024587     2.4924546706     1.4889595929
C     -1.6174032979     2.4949331913     2.4709936639
C     -2.2539628695     3.2580447354     0.3598945829
C     0.7079113068     2.9664593258     1.9880393495
C     -0.6557813873     3.3930587939     2.066909904
C     -1.0607113152     3.9498716679     0.7760458038
C     2.3102449756     2.7715978522     0.099974768
C     2.2379383807     2.5846073496     -1.3435394741
C     1.1172736944     3.0329087706     -2.0390653254
C     -0.0226346869     3.6157796345     -1.4087713017
C     1.2306217096     3.4431004324     0.7325816536
C     0.0782448394     3.9713581803     -0.0407941189


