60

 C     -0.2147558532     0.7030844769     3.5976192746
C     0.8118553721     1.4947190146     3.0883418671
C     1.928996923     0.5788940592     2.743558845
C     0.2147558532     -0.7030844769     3.5976192746
C     1.543584092     -0.7758954905     3.115077937
C     -0.8118553721     -1.4947190146     3.0883418671
C     -1.543584092     0.7758954905     3.115077937
C     -1.928996923     -0.5788940592     2.743558845
C     -1.8973155451     1.8642615505     2.3101795553
C     0.4807567486     2.6215283607     2.2646720141
C     -0.8998214214     2.8432310446     1.9499877373
C     1.4678696425     3.0000474768     1.2943008557
C     2.7201154178     0.8049488777     1.6028179651
C     2.5425273827     2.0829852306     0.9487444558
C     3.2025669334     -0.3568509534     0.8090888757
C     1.8973155451     -1.8642615505     2.3101795553
C     2.7839240501     -1.6702156267     1.1861621554
C     -0.4807567486     -2.6215283607     2.2646720141
C     0.8998214214     -2.8432310446     1.9499877373
C     -1.4678696425     -3.0000474768     1.2943008557
C     -2.7201154178     -0.8049488777     1.6028179651
C     -2.5425273827     -2.0829852306     0.9487444558
C     -2.7839240501     1.6702156267     1.1861621554
C     -3.2025669334     0.3568509534     0.8090888757
C     -1.2874629517     3.3875112715     0.6471623976
C     -2.4547733432     2.6837328861     0.1949571902
C     1.0655665101     3.672346555     0.1097514307
C     -0.2957339718     3.7606811116     -0.2702772067
C     2.7908457472     2.2200042197     -0.4659688344
C     1.8336678074     3.1409280507     -0.9973356714
C     3.4714410308     -0.1537361636     -0.5891739659
C     3.1087104811     1.1076466572     -1.2270074035
C     3.1994065175     -1.170971711     -1.5249902951
C     2.4547733432     -2.6837328861     0.1949571902
C     1.2874629517     -3.3875112715     0.6471623976
C     2.6017638393     -2.3842380852     -1.1734913814
C     -1.0655665101     -3.672346555     0.1097514307
C     0.2957339718     -3.7606811116     -0.2702772067
C     -2.7908457472     -2.2200042197     -0.4659688344
C     -1.8336678074     -3.1409280507     -0.9973356714
C     -3.4714410308     0.1537361636     -0.5891739659
C     -3.1087104811     -1.1076466572     -1.2270074035
C     -2.6017638393     2.3842380852     -1.1734913814
C     -3.1994065175     1.170971711     -1.5249902951
C     -0.3658213322     3.2638001873     -1.6577191437
C     0.9647615583     2.7798589791     -2.0400570295
C     -1.4659126081     2.5833765761     -2.091205259
C     2.3640368649     0.8330809726     -2.4486273166
C     2.4234718417     -0.5632539857     -2.6242112098
C     1.1449521553     1.5233235023     -2.7383713676
C     1.4659126081     -2.5833765761     -2.091205259
C     0.3658213322     -3.2638001873     -1.6577191437
C     -0.9647615583     -2.7798589791     -2.0400570295
C     1.3112567035     -1.3558187444     -2.9024148935
C     -2.3640368649     -0.8330809726     -2.4486273166
C     -2.4234718417     0.5632539857     -2.6242112098
C     -1.3112567035     1.3558187444     -2.9024148935
C     -0.0266708686     0.7383493346     -3.1115715783
C     -1.1449521553     -1.5233235023     -2.7383713676
C     0.0266708686     -0.7383493346     -3.1115715783


