60

 C     0.5719122781     -4.4478911116     0.1552942767
C     1.5337912417     -3.8527779499     -0.7194923168
C     2.3857641459     -3.0003753479     0.0274933646
C     0.6776535335     -3.7662770063     1.4158763638
C     1.8195000533     -2.9294970802     1.3880461589
C     -0.5868105706     -3.1954548625     1.8063608421
C     -0.7141620696     -4.1179494991     -0.3408812407
C     -1.513714125     -3.5677660207     0.7310888388
C     0.8084175486     -3.2416508522     -1.8211936359
C     -0.62619342     -3.4109545992     -1.5964514976
C     1.2585180305     -2.0551852347     -2.37878478
C     2.9276976568     -1.8119310076     -0.5681708061
C     2.4162342869     -1.3879524813     -1.8521748584
C     3.3366323145     -0.8033580159     0.3225149611
C     1.8183276155     -1.7035009987     2.0942147329
C     2.8494312382     -0.798327875     1.6864103872
C     -0.6702069731     -1.9008684023     2.3923017161
C     0.5736896452     -1.1520845163     2.6321577909
C     -1.9334734531     -1.1574645835     2.2155026234
C     -2.5378414848     -2.7369865052     0.3806874502
C     -2.9078394273     -1.6450008452     1.2723048848
C     -1.5448304669     -2.3615589486     -1.8821883378
C     -2.6710677121     -2.2633575126     -0.9975504734
C     0.316432948     -1.0223018135     -2.7950025355
C     -1.0699694731     -1.1056924367     -2.5277468397
C     2.300059803     0.0087374636     -2.1691970194
C     1.015007196     0.230592419     -2.7832367618
C     3.4910777037     0.5935693838     -0.1052038731
C     2.9063286503     1.0217208537     -1.3668100776
C     2.8264931566     0.5441114787     2.0991776139
C     3.3406446018     1.4013172459     1.0255686789
C     0.5024005153     0.2906383732     2.8437307863
C     1.6585895198     1.1226270936     2.5893654254
C     -1.9505272707     0.2480632151     2.4558889128
C     -0.7437769867     0.9629704633     2.7613258476
C     -2.8007302467     1.1567484929     1.7188735398
C     -3.6383783435     -0.7277893806     0.4879241149
C     -3.3607318058     -1.0501280644     -0.9112060691
C     -3.5458699889     0.6625993011     0.6467475535
C     -1.7947571863     0.1668576119     -2.3713988066
C     -2.9968330109     0.1363020163     -1.5899082792
C     -3.3243198282     1.2410076433     -0.6955407248
C     0.3452318747     1.4789701048     -2.70634058
C     -1.1080831189     1.4575473741     -2.5139939923
C     2.3470877677     2.3166197401     -1.4344405651
C     1.1338970026     2.5816245284     -2.2293031453
C     2.5926029549     2.5985348562     1.0007904805
C     1.5454680405     2.4842829229     2.0052023068
C     2.2875278126     3.174839264     -0.2539026364
C     -0.8601990192     2.3321002783     2.265365761
C     -2.1055981042     2.4222368684     1.5861816088
C     0.2895643151     3.0838263441     1.8076937971
C     -2.6858665815     2.4319252045     -0.8256123892
C     -1.6927546305     2.6146038791     -1.8807575139
C     -2.2023167971     3.1585156377     0.3691575792
C     0.4916887876     3.6951906222     -1.6508087015
C     1.1286074885     3.9662421616     -0.3548607652
C     0.1209217199     3.963182894     0.6503746294
C     -0.8880373856     3.7035022163     -1.4710914104
C     -1.1423117669     3.9624749001     -0.0403722942


