60

 C     2.9509135554     -2.4935288161     1.680887041
C     1.6282609738     -2.6877388837     2.2923015752
C     0.7740293944     -3.4037737592     1.4214669651
C     2.8353810612     -2.8606030758     0.3557336912
C     1.5634715363     -3.57148827     0.1832666451
C     3.1592482504     -1.7089192483     -0.5012107056
C     3.2530894465     -1.0903736706     1.7321852037
C     3.4550820662     -0.6094920161     0.3904289194
C     1.2175636203     -1.4482393783     2.8477517246
C     2.239004551     -0.4556851422     2.4843142467
C     -0.1468047651     -1.0938812563     2.8588904542
C     -0.6122692575     -3.0751920917     1.3590495543
C     -1.1033705638     -2.039603289     2.2729089767
C     -1.3082996178     -3.28075526     0.07459321
C     0.9527956631     -3.4699431865     -1.0238226667
C     -0.5133782029     -3.4844415003     -1.1001664808
C     2.4211396468     -1.4864690676     -1.6795523531
C     1.4686262649     -2.5241122842     -2.0491291136
C     2.186439985     -0.1020558909     -2.1246411387
C     3.1157646287     0.7144715924     0.0552548183
C     2.7028002873     0.9971455589     -1.3140611817
C     1.8904179105     0.893793465     2.2165648197
C     2.5722685923     1.5620680355     1.1239860418
C     -0.4501542675     0.3433678428     2.9320144627
C     0.5713220729     1.3300198098     2.6468224813
C     -1.8199566943     0.7333919284     2.7299862024
C     -2.4423560197     -1.5730466526     2.0908688138
C     -2.7796485135     -0.2138787693     2.4080108964
C     -2.5506876678     -2.5942354446     -0.139131794
C     -3.1630788678     -1.9054334657     0.9170025694
C     -2.7870022125     -1.788831165     -1.3431388009
C     -0.8504274254     -2.8351475667     -2.303188155
C     0.3600076106     -2.1894928996     -2.8035574341
C     -1.8809306567     -1.8673515539     -2.3784123973
C     1.0178447838     0.1775829723     -2.9497776256
C     0.0577588323     -0.8436434619     -3.1783988166
C     -1.3344216761     -0.6180040097     -2.9195238904
C     0.4642088786     1.4898678822     -2.9900800848
C     2.2785032126     2.342462126     -1.606086768
C     1.2008862154     2.574765137     -2.5021455282
C     2.1520009066     2.8791605382     0.7830629703
C     2.1467305679     3.3129711738     -0.5569623076
C     0.1628723547     2.6527824211     2.2276628614
C     0.9859706578     3.4282169639     1.425314058
C     -2.1475227538     1.9552979525     1.9668022301
C     -1.2022626814     2.8907063616     1.7498415347
C     -3.6039986773     0.3385928807     1.3044695057
C     -3.7934714746     -0.6771491074     0.3903600661
C     -3.3801068336     -0.506207633     -0.9529863164
C     -3.0937403335     1.5921962065     0.9153950764
C     -1.8125889709     0.6580685905     -2.4691271428
C     -0.9303800304     1.7295858778     -2.6740393211
C     -2.8211819122     0.7376241668     -1.3966116731
C     -2.7227256672     1.8572554197     -0.4471823956
C     0.2907629419     3.5725933023     -1.9455295584
C     0.9026122196     4.0833346497     -0.7903464449
C     0.174223029     4.1260790376     0.3960628409
C     -1.138290187     3.5963655086     0.4700446599
C     -0.9973706609     2.9680742703     -1.8869470314
C     -1.7655753268     2.9608763445     -0.6775478899


