60

 C     0.6839969994     4.4205633496     0.4956005619
C     -0.5125708241     4.2640990814     -0.205460073
C     -1.5149849162     3.6333761539     0.6439011206
C     0.5460945327     3.6346405088     1.7149225281
C     -0.7891047906     3.0998253836     1.7903156678
C     1.6017435241     2.7147627334     1.7717985779
C     1.6965166626     3.7625811963     -0.2869574672
C     2.3914600896     2.8580581965     0.5348637273
C     -0.2574372405     3.6820343791     -1.5304378582
C     1.1248998683     3.2524047686     -1.5272838468
C     -1.2390671651     2.862851245     -2.0655615292
C     -2.5224318737     2.9019135181     0.0201864462
C     -2.5010486496     2.7083203634     -1.3962806949
C     -2.9814008284     1.6689573593     0.6436248285
C     -1.0445453967     1.7590546227     2.2427163096
C     -2.2901245456     1.1379242903     1.768060501
C     1.4096978684     1.3956522214     2.3226636998
C     0.069666432     0.8939505615     2.5992845318
C     2.4316766511     0.4856589916     2.0364472193
C     3.0255327915     1.734514413     -0.0213279026
C     3.363573802     0.7272284611     0.9374079583
C     1.4990877813     1.9627525406     -1.9977940314
C     2.6516224129     1.3166018279     -1.3756958013
C     -0.8711854639     1.558320805     -2.6243899929
C     0.4547745935     1.0915204765     -2.5851973218
C     -2.9362174271     1.3638178232     -1.6157449477
C     -3.3821789753     0.7624518324     -0.4046352531
C     -1.9798814914     0.6497262495     -2.3879236908
C     -3.3490811502     -0.6409744949     -0.2498977103
C     -2.4864840354     -0.2370501195     2.0092287598
C     -3.2226083361     -1.0831930219     1.1041660001
C     -0.1183585594     -0.5591649712     2.7101291104
C     -1.4509600069     -1.0509640581     2.6338013246
C     2.2475182291     -0.9620973933     2.1625085941
C     0.9481789053     -1.5116885323     2.4096370285
C     3.7987540937     -0.5241529487     0.5009062982
C     3.1589018819     -1.5914662678     1.3110190936
C     2.9223433712     -0.0295493212     -1.7304540142
C     3.6558519007     -0.8796249865     -0.8354615497
C     0.6378157606     -0.367307936     -2.6571492903
C     1.9271400591     -0.8616715772     -2.3781781965
C     -1.8244114389     -0.7526501461     -2.2279201797
C     -2.7348296647     -1.4589484173     -1.3053294536
C     -0.5160115862     -1.2869869213     -2.548843065
C     -2.439408851     -2.8162893235     -0.9958888393
C     -2.8345988746     -2.4220572673     1.3792881012
C     -1.701693111     -2.4005246063     2.3261249268
C     -2.560202762     -3.313898416     0.3761734332
C     0.6565132632     -2.8369247463     1.82839051
C     -0.7046468444     -3.2920662125     1.8705293018
C     -1.2933119335     -3.9921264876     0.7338036873
C     2.7393539187     -2.6440447153     0.4566489722
C     3.0886891385     -2.2232026616     -0.8767034861
C     2.1082090635     -2.2322892306     -1.8781285388
C     1.4975576607     -3.3045975602     0.7083379848
C     -0.2882626102     -2.6603425438     -2.2086396504
C     -1.2651782514     -3.4027407423     -1.5216552447
C     -0.5642638829     -4.1046263843     -0.4219746729
C     1.0172207286     -3.0734602837     -1.7106694333
C     0.8220995028     -3.7868809593     -0.470903069


