60

 C     -3.9329263749     0.7691622368     2.2993031831
C     -4.3572318581     1.1476685475     1.0134684102
C     -4.7376732322     -0.0596454907     0.3244404297
C     -3.6953592467     -0.6961775032     2.2791509352
C     -4.1886215687     -1.2172842357     1.0882829701
C     -2.3248522526     -0.9290917327     2.5860469386
C     -2.6817340308     1.380835163     2.5591375247
C     -1.7568176908     0.379045747     2.9499863831
C     -3.2995510259     1.9872815749     0.4244961438
C     -2.2710966978     2.1964880897     1.440092809
C     -2.8758591735     1.8035542134     -0.9137475829
C     -4.3692684395     -0.2279615644     -0.9801617242
C     -3.5367341947     0.7249922746     -1.6527306438
C     -3.3530380203     -1.9995990689     0.1980260799
C     -3.6533343323     -1.5307786388     -1.1143815826
C     -1.4919595496     -1.8047992558     1.8025377348
C     -1.9710873668     -2.2832035415     0.5155344186
C     -0.0804281544     -1.7106879951     2.037314019
C     -0.4060384499     0.5960757759     2.8066466153
C     0.4060384499     -0.5960757759     2.8066466153
C     -0.8904516035     2.3129626794     1.1216165987
C     0.0804281544     1.7106879951     2.037314019
C     -1.4789090989     2.1464545944     -1.2828168551
C     -0.4608867661     2.4344143599     -0.2558077876
C     -1.0108680978     1.6764337167     -2.5315690522
C     -2.7565995988     -0.0295054906     -2.5853940711
C     -2.6906549623     -1.4314286739     -2.0977450672
C     -1.6506449057     0.5258594766     -3.1484555747
C     -0.9773932319     -2.390916806     -0.5651064338
C     -1.3862861714     -2.0025321152     -1.9033438365
C     0.8904516035     -2.3129626794     1.1216165987
C     0.4608867661     -2.4344143599     -0.2558077876
C     2.2710966978     -2.1964880897     1.440092809
C     1.7568176908     -0.379045747     2.9499863831
C     2.6817340308     -1.380835163     2.5591375247
C     1.4919595496     1.8047992558     1.8025377348
C     2.3248522526     0.9290917327     2.5860469386
C     0.9773932319     2.390916806     -0.5651064338
C     1.9710873668     2.2832035415     0.5155344186
C     0.3905414595     1.5612503026     -2.8260561618
C     1.3862861714     2.0025321152     -1.9033438365
C     -0.6035913788     -0.3573213253     -3.5887647203
C     -0.3905414595     -1.5612503026     -2.8260561618
C     0.6035913788     0.3573213253     -3.5887647203
C     1.4789090989     -2.1464545944     -1.2828168551
C     1.0108680978     -1.6764337167     -2.5315690522
C     1.6506449057     -0.5258594766     -3.1484555747
C     3.2995510259     -1.9872815749     0.4244961438
C     2.8758591735     -1.8035542134     -0.9137475829
C     3.9329263749     -0.7691622368     2.2993031831
C     3.6953592467     0.6961775032     2.2791509352
C     4.3572318581     -1.1476685475     1.0134684102
C     3.3530380203     1.9995990689     0.1980260799
C     4.1886215687     1.2172842357     1.0882829701
C     4.7376732322     0.0596454907     0.3244404297
C     2.6906549623     1.4314286739     -2.0977450672
C     2.7565995988     0.0295054906     -2.5853940711
C     3.5367341947     -0.7249922746     -1.6527306438
C     3.6533343323     1.5307786388     -1.1143815826
C     4.3692684395     0.2279615644     -0.9801617242


