60

 C     -0.4397089514     4.2785002668     1.3023890178
C     0.7598675392     4.2842739305     0.5002346601
C     0.3778496326     4.0286394194     -0.8550646322
C     -1.555258533     3.9254720784     0.4683019944
C     -1.067583053     3.7096083829     -0.8603078623
C     -2.2768503183     2.8812259192     1.1237543429
C     -0.3040178675     3.3013028901     2.2967473476
C     -1.4624968545     2.4258427032     2.2573445167
C     1.7438923423     3.4541324187     1.1358516883
C     1.0424304006     2.7492770223     2.2195637994
C     2.6186212637     2.7301829737     0.3213638263
C     1.2527605168     3.2807141669     -1.6574969041
C     2.4624061368     2.8115492368     -1.0900709154
C     0.7469540117     2.2097972582     -2.5317069236
C     -1.555589462     2.6079781731     -1.6402574168
C     -0.6278361994     1.8803586012     -2.5422346805
C     -2.8927442229     1.9184695328     0.3476725286
C     -2.6294854238     1.8444326146     -1.0790174463
C     -3.0456804905     0.574792744     0.8380196795
C     -1.3230278969     1.063937222     2.5243404344
C     -2.2756080871     0.1033457952     1.9283577748
C     1.2172425025     1.3781984977     2.4087315326
C     0.0413964455     0.5774429805     2.8126660977
C     2.9254800058     1.3342637063     0.6228568975
C     2.2843184264     0.663967991     1.6669730001
C     2.7516059429     1.5031686718     -1.6568970698
C     1.7420390735     1.153799332     -2.5866381668
C     3.1144011144     0.6076588504     -0.641645765
C     1.4040244615     -0.2148126965     -2.7443937484
C     -0.9456273547     0.5325869117     -2.9362462315
C     0.0593805096     -0.479620493     -3.120384897
C     -2.9036833458     0.4947260274     -1.4860515596
C     -3.2650293941     -0.2822594887     -0.305894645
C     -2.1436298857     -0.127996761     -2.4726741498
C     -2.9925987359     -1.6308276263     -0.2318253001
C     -2.0232058582     -1.3248097586     2.0227940721
C     -2.4688844001     -2.2034587021     0.9848563606
C     0.226169952     -0.777560043     2.9500539029
C     -0.8570437948     -1.7477894812     2.7501187421
C     2.3349615144     -0.7962249349     1.6685157558
C     1.4842168641     -1.446930857     2.5861310102
C     2.833797391     -0.7753711292     -0.7670554427
C     2.1165367644     -1.2205493493     -1.9531123715
C     2.7561809423     -1.5441014614     0.4687303455
C     1.5946680353     -2.547284816     -1.9345100307
C     -0.538338671     -1.7738233376     -2.8718448457
C     -1.8994725168     -1.5567936628     -2.4150863104
C     -2.3804268775     -2.3295027794     -1.3588556149
C     0.2113633608     -2.818699373     -2.3692908695
C     -1.7315419758     -3.4039757255     0.6255561745
C     -1.616021665     -3.4376163864     -0.8375223799
C     -0.3736228763     -3.757457301     -1.4211635342
C     -0.278820667     -2.9957900935     2.5154920044
C     1.1879626344     -2.8263598568     2.4504626667
C     -0.672161525     -3.8555289963     1.4372070636
C     2.4306424715     -2.9225204621     0.3650096015
C     1.8919383955     -3.408605682     -0.8741184646
C     0.6942604712     -4.2100387607     -0.5711927718
C     1.6863767823     -3.5842410702     1.4113615614
C     0.5522509989     -4.309095133     0.8011022501


