60

 C     -0.0102671119     -3.877115428     0.901646274
C     1.2113644382     -3.4886216255     1.3935888107
C     2.1381598257     -3.2979926324     0.2440061115
C     0.0836866206     -3.8469968242     -0.5720750252
C     1.3811146777     -3.374495295     -0.9579398419
C     -1.1009573874     -3.3087528517     -1.0692319018
C     -1.1980398155     -3.2032788077     1.2847930453
C     -2.0019246036     -3.1089299433     0.0793466486
C     -1.1442254733     -2.0878939279     2.1856705501
C     1.3375283324     -2.3741983955     2.253278379
C     0.1779138444     -1.637259766     2.6552021077
C     2.9886762193     -2.2298566553     0.532451589
C     2.557715196     -1.6717940406     1.8223987692
C     3.3386710491     -1.3494884551     -0.5095045131
C     1.4983235921     -2.3190949777     -1.9364014394
C     2.5955810453     -1.415566955     -1.7623610275
C     -1.0593547875     -2.3320007808     -2.1394218516
C     0.2664507644     -1.8157275428     -2.567580116
C     -2.2082589232     -1.5090921871     -2.2678049116
C     -3.0118052298     -2.1822869341     -0.0082048226
C     -3.2246058943     -1.5337754024     -1.2573526441
C     -2.2495716394     -1.1132947093     2.1079642241
C     -3.2128395166     -1.2062037216     1.0580758795
C     -2.0537146948     0.1910388223     2.675186505
C     0.3848300197     -0.210371848     2.9884249331
C     -0.716612063     0.6506037923     3.0712928173
C     2.7226941861     -0.3325468099     2.0545679668
C     1.6615483839     0.4177505829     2.6962867749
C     3.6250291629     0.025108604     -0.2133358631
C     3.377973534     0.530808322     1.0815870816
C     2.5642096278     -0.0791986671     -2.2964179242
C     3.245143377     0.8239427849     -1.3644323234
C     0.2918902128     -0.5057194988     -3.1051297198
C     1.4355716401     0.3597408205     -2.9736526944
C     -2.1014397278     -0.117173554     -2.6750104639
C     -0.879887318     0.3611070739     -3.0738050769
C     -3.6615547161     -0.1968360874     -0.9914453217
C     -3.7510539522     -0.0025916092     0.4241771488
C     -2.9448724822     0.703393354     -1.8140869882
C     -2.7403495508     1.3077579651     2.167353457
C     -3.4264157633     1.2520196497     0.9173173592
C     -0.5997344085     2.0560706364     2.7285041917
C     -1.8372652127     2.4311801925     2.154112024
C     1.7732546716     1.7729143767     2.2626445749
C     2.8325032833     1.8399872301     1.252168429
C     0.607505516     2.606646413     2.1889374337
C     2.8171702939     2.1292780512     -1.2084149389
C     2.6628200457     2.685928957     0.1387359684
C     0.9751871103     1.7369464452     -2.8157123706
C     -0.4669714434     1.7193569978     -2.7699131227
C     1.6883677687     2.6251436521     -2.0116737545
C     -2.4681962591     1.9641808562     -1.2970735074
C     -2.818389908     2.2676578016     0.0480843148
C     -1.9062375886     3.0623384902     0.8775772136
C     -1.2176854494     2.5250901767     -1.8554798553
C     0.4971606863     3.5194183814     1.0846499946
C     1.5396038313     3.5475806921     0.1107620297
C     0.9487636043     3.5320331171     -1.2098234956
C     -0.7560288395     3.6272486487     0.350386056
C     -0.4581527011     3.4558828457     -1.0678931475


