60

 C     0.5200678793     -5.1569122758     -0.0002456265
C     1.600412395     -4.5540020123     -0.61072833
C     2.2434565804     -3.615020783     0.3134233917
C     0.413642128     -4.5409924226     1.3387418582
C     1.4654024529     -3.5316762083     1.5154919583
C     -0.8908137934     -4.115752442     1.5105663559
C     -0.6674491157     -4.7274690059     -0.7462895323
C     -1.5959828408     -4.2472199517     0.1785811135
C     1.1958447556     -3.7778750263     -1.7647317283
C     -0.2525592162     -3.8041397951     -1.8042635316
C     2.5753725939     -2.4459225442     -0.3955427426
C     1.854185552     -2.5148795227     -1.6965387951
C     2.5691263667     -1.2250340785     0.2622294439
C     1.1629538188     -2.2272015231     2.0376501503
C     1.9460228353     -1.1120015675     1.5618976661
C     -1.206346026     -2.8341136517     2.0329039373
C     -0.21233057     -1.8815148819     2.4329620927
C     -2.3156613466     -3.0643339841     -0.030210856
C     -2.3249298685     -2.3387589294     1.2392889234
C     -0.9533012161     -2.5782972993     -2.0266949496
C     -2.1184052852     -2.2493104708     -1.2076416475
C     1.2488846888     -1.3518654511     -2.200766426
C     -0.1702061904     -1.4238520023     -2.5032865373
C     2.5845585021     -0.0450283396     -0.5993944786
C     1.827132242     -0.0621964629     -1.8151998871
C     2.8239891974     1.1631395195     0.0321675375
C     1.6715157084     0.2304411571     2.0183015463
C     2.4966742511     1.2595768525     1.4712349787
C     -0.6132408484     -0.4759791442     2.5323825104
C     0.3722228936     0.6019951121     2.5326942831
C     -2.6664269582     -1.0306034007     1.2939997598
C     -1.9302850163     -0.1132929006     2.133354139
C     -2.6063833808     -0.876614928     -1.150333004
C     -3.0473864285     -0.3231724976     0.0954258608
C     -0.8076655468     -0.1942855678     -2.658463671
C     -2.0790308238     0.0795676856     -2.0709766957
C     1.252804291     1.1950337478     -2.2582782185
C     -0.0859096348     1.0807480195     -2.7176780916
C     2.6207600829     2.4321207253     -0.5890965197
C     1.7072857853     2.4860311675     -1.7066240143
C     2.2213209122     2.5865997118     1.7160913507
C     2.4832208484     3.3736676611     0.4896197913
C     -0.0426349746     2.0064407565     2.4717208149
C     0.9652920586     3.0237053225     2.2510894689
C     -2.2079742756     1.1924682623     1.6489157363
C     -2.9024903009     1.0636413443     0.3779718792
C     -1.3782041298     2.3057425291     1.9477953051
C     -2.1948305701     1.5060267531     -1.8877776338
C     -1.0234919568     2.1341981723     -2.4809831981
C     -2.6329484112     2.0216024954     -0.6363544883
C     0.8198273016     3.619729582     -1.7664189393
C     -0.5823093102     3.3860900794     -2.0610830351
C     1.6185337866     4.439207207     0.455379164
C     0.6580127656     4.2616765518     1.5968668469
C     0.83024733     4.6376895585     -0.7187949288
C     -1.6055229753     3.4687647911     1.148049862
C     -2.1463050196     3.2978755481     -0.1946672457
C     -1.3654838842     4.119164057     -1.0708981236
C     -0.6103939548     4.5056884652     1.059514579
C     -0.5118662339     4.9606860358     -0.3263494291


