60

 C     -0.7118113554     -4.3543568652     -0.4623078029
C     -1.0375792394     -4.0558697332     0.8909449691
C     0.1914184738     -3.8046774646     1.6283660792
C     0.7189800307     -4.1926699638     -0.6140903988
C     1.2672740907     -3.8836234145     0.671847838
C     0.9669406565     -3.3045719136     -1.7321124179
C     -1.3510646202     -3.6754423235     -1.527643367
C     -0.288100475     -3.052538409     -2.3311380907
C     -2.300731108     -2.6800949546     -1.2679394585
C     -1.9790390051     -3.0415298894     1.1804868345
C     -2.7138280763     -2.4156667604     0.1058397877
C     0.0170217329     -2.5984650052     2.3452795245
C     -1.3574006337     -2.1672616872     2.1782145254
C     1.0515886342     -1.6018240637     2.4717228674
C     2.2856681377     -2.9452689204     0.7360905552
C     2.2865543991     -1.9338719272     1.7946510936
C     1.9375087742     -2.2420073616     -1.650571392
C     2.7668389118     -2.2706002453     -0.4714336099
C     1.6377890346     -0.9371280064     -2.2355805889
C     -0.6665678498     -1.7393858812     -2.664249082
C     -1.9883471344     -1.5127168929     -2.1216434231
C     0.2760697856     -0.6742118256     -2.6991501285
C     -2.4469305646     -0.2261004314     -1.8360641776
C     -3.206238532     -1.1377246947     0.3570721746
C     -3.3119061765     -0.118397469     -0.6836462978
C     -1.7160458477     -0.8243216247     2.3378722973
C     -2.8942856021     -0.4285447203     1.5971589381
C     0.705176531     -0.2018231616     2.6609950968
C     -0.705176531     0.2018231616     2.6609950968
C     1.7160458477     0.8243216247     2.3378722973
C     3.1603517064     -0.9148146085     1.3865372869
C     3.4330723823     -1.1109987699     -0.0455097323
C     2.8942856021     0.4285447203     1.5971589381
C     2.4469305646     0.2261004314     -1.8360641776
C     3.3119061765     0.118397469     -0.6836462978
C     3.206238532     1.1377246947     0.3570721746
C     1.9883471344     1.5127168929     -2.1216434231
C     -0.2760697856     0.6742118256     -2.6991501285
C     -1.6377890346     0.9371280064     -2.2355805889
C     0.6665678498     1.7393858812     -2.664249082
C     -1.9375087742     2.2420073616     -1.650571392
C     -3.4330723823     1.1109987699     -0.0455097323
C     -3.1603517064     0.9148146085     1.3865372869
C     -2.7668389118     2.2706002453     -0.4714336099
C     -1.0515886342     1.6018240637     2.4717228674
C     -2.2865543991     1.9338719272     1.7946510936
C     -2.2856681377     2.9452689204     0.7360905552
C     1.3574006337     2.1672616872     2.1782145254
C     -0.0170217329     2.5984650052     2.3452795245
C     2.7138280763     2.4156667604     0.1058397877
C     2.300731108     2.6800949546     -1.2679394585
C     1.9790390051     3.0415298894     1.1804868345
C     0.288100475     3.052538409     -2.3311380907
C     -0.9669406565     3.3045719136     -1.7321124179
C     1.3510646202     3.6754423235     -1.527643367
C     -1.2672740907     3.8836234145     0.671847838
C     -0.1914184738     3.8046774646     1.6283660792
C     1.0375792394     4.0558697332     0.8909449691
C     -0.7189800307     4.1926699638     -0.6140903988
C     0.7118113554     4.3543568652     -0.4623078029


