60

 C     1.216480127     4.0696889011     0.5946422577
C     -0.1233608477     4.2395520399     0.7451590131
C     -0.7480434804     4.1811580054     -0.6167852465
C     1.4874715056     3.8918867022     -0.8753123021
C     0.2400896533     3.704563576     -1.5519961918
C     2.4896736563     2.973372328     -0.9804774669
C     1.9266489317     3.0416540422     1.3119967227
C     2.8595644286     2.5244544858     0.3807158079
C     1.1900395416     2.0881506229     2.1374114451
C     -0.8936562011     3.3801279714     1.6156025986
C     -0.2509953599     2.2577489801     2.2918400115
C     -1.9628692706     3.576739354     -0.4667352173
C     -2.1211513684     3.165445793     0.9460464768
C     -2.3233360556     2.4582703843     -1.2705782619
C     -0.003022638     2.4617971215     -2.2625649533
C     -1.3659647707     1.9143168815     -2.1955875049
C     2.3442636426     1.7926920592     -1.7696849818
C     1.1109281311     1.4982087068     -2.4171252458
C     3.2154385496     1.1823787162     0.3141463562
C     3.0383331118     0.7333085633     -1.0578771051
C     1.7756186683     0.7479813798     2.2783309704
C     2.8610045211     0.3071135925     1.3829517204
C     0.9660950066     -0.2777073241     2.8117973332
C     -1.0863713859     1.0814617027     2.555767275
C     -0.440981731     -0.1165239588     2.9422316751
C     -2.7764717401     1.9313540858     0.953344299
C     -3.0674410681     1.5526457146     -0.4220267178
C     -2.397195691     0.9261264846     1.8998359605
C     -3.2698760397     0.205961563     -0.7553501322
C     -1.5642577257     0.5421362321     -2.5197628016
C     -2.6165036498     -0.2688822883     -1.9407796855
C     0.8578967801     0.0710018713     -2.6953180696
C     -0.4803610983     -0.3235741922     -2.9121967859
C     2.8663907733     -0.6172239821     -1.3446247639
C     1.8156642114     -0.9828466229     -2.3001184707
C     3.0595059528     -1.0526874133     1.1040948172
C     3.2157810854     -1.5115859297     -0.2688193892
C     1.2368707691     -1.7089357513     2.5804366966
C     2.3328187658     -2.0989620684     1.8088582586
C     -1.0453579746     -1.4358957718     2.759559587
C     -0.0051737073     -2.413004931     2.4806993133
C     -2.9207847923     -0.3590008764     1.6505326425
C     -3.4420894019     -0.708646995     0.3350987074
C     -2.2954247646     -1.5586398588     2.1824626448
C     -3.189962691     -2.0859091458     0.1314414051
C     -2.5225372349     -2.6408210201     1.2656543686
C     -2.235495977     -1.6449285419     -2.0575090534
C     -0.9231673607     -1.6822399307     -2.7058698408
C     -2.5438432114     -2.5796139428     -1.0576425524
C     1.3817348587     -2.3394788217     -2.2697968615
C     -0.0272053789     -2.6743078363     -2.4008531411
C     2.8019276555     -2.8604353762     -0.3202875936
C     2.214833359     -3.2303909814     0.9597849215
C     1.9266396098     -3.2757361904     -1.3261569603
C     -0.1952612649     -3.4622383743     1.4986731991
C     -1.473166047     -3.4877427868     0.82753498
C     -1.5502146158     -3.5490452198     -0.6400063386
C     -0.3622306409     -3.6817566145     -1.367043713
C     0.9566577327     -3.8610434749     0.7294787594
C     0.8354043565     -4.0114914392     -0.7072430757


