60

 C     -1.2262586846     -4.0551638018     -0.7739687754
C     -0.6360250395     -4.1627837574     0.4930373256
C     0.7988452838     -4.0113696043     0.3144524536
C     -0.1693511799     -3.6417504256     -1.7474938604
C     1.0683226228     -3.5772407556     -1.0280924498
C     -0.645308367     -2.5315418254     -2.4620507678
C     -2.3247621017     -3.2332940198     -0.9375570339
C     -2.0426324655     -2.3695373359     -2.1061023489
C     -2.7899632856     -2.3902518308     0.1130233564
C     -1.0506921678     -3.3195201457     1.5763722676
C     -2.120576241     -2.3656076718     1.3900277086
C     1.3244902307     -3.3128471778     1.4258828715
C     0.1792040649     -2.8989106839     2.2462740955
C     2.3666762492     -2.41938473     1.200863302
C     1.9664834163     -2.4941276798     -1.2591056586
C     2.768417726     -2.0841895381     -0.1457200125
C     0.1793897897     -1.3502931273     -2.6721899384
C     1.5692377023     -1.4408389942     -2.2262014628
C     -0.4581799383     -0.0521399767     -2.7759240569
C     -2.5513662889     -1.1262560134     -1.8707371098
C     -3.1340142159     -1.1289303141     -0.5078132568
C     -1.8679098416     0.0495616595     -2.361984217
C     -3.267801     0.0658044611     0.178765865
C     -2.0518302113     -1.0636266013     2.0836907534
C     -2.7744627059     0.1188764478     1.5690276334
C     0.2359452096     -1.6811946583     2.8824415877
C     -0.9151531925     -0.805754575     2.8901952818
C     2.4833403725     -1.1948476686     1.9881504175
C     1.4294855545     -0.8373682616     2.8119849146
C     3.3650721873     -0.7806467336     -0.0984284373
C     3.1400085247     -0.1819588585     1.2091891811
C     2.3237468632     -0.2609182883     -2.2615634159
C     3.3325937579     0.0260576347     -1.230960515
C     0.3425938555     1.1725615203     -2.7568908645
C     1.7559261262     1.004550998     -2.6552073809
C     -0.2405401167     2.4549771787     -2.3097038837
C     -2.3802590249     1.236365956     -1.8713235317
C     -3.218154921     1.2503516273     -0.6531908838
C     -1.6209560557     2.4789856494     -1.9174590554
C     -3.0355919072     2.5001315916     -0.079173338
C     -2.087666915     3.2983304093     -0.8774833984
C     -2.4393922687     1.401505568     2.067830178
C     -2.6484428493     2.5929212     1.2764406725
C     -0.4115575105     0.5364845206     3.0856432349
C     1.0230145817     0.5498543902     2.8967607393
C     -1.1761472924     1.6162498196     2.7350803769
C     2.8243555349     1.2049978304     1.3370000959
C     1.6676545146     1.585715789     2.1761444909
C     3.4299863735     1.4148132306     -1.059562164
C     2.5618734893     2.0393636137     -2.0542238451
C     3.1514873257     2.0300535559     0.2036248216
C     0.5961039632     3.3965126184     -1.6097724278
C     1.992820591     3.1629959711     -1.5038776286
C     2.364483131     3.1949203718     -0.0766488348
C     -1.1596865895     3.8987808556     0.0329375821
C     -1.5103672464     3.4515406628     1.3678094002
C     -0.5289003854     2.8029833481     2.1846561448
C     0.8510943355     2.7758893693     1.8284123412
C     0.1726963677     3.930981421     -0.3224915596
C     1.2186001645     3.529175585     0.6471835197


