60

 C     -2.1873159899     -3.4460385952     -0.5584344632
C     -1.774631736     -3.6729855813     0.7511219869
C     -0.3796363142     -4.0585694432     0.7163643418
C     -1.04373184     -3.681965968     -1.4456560945
C     0.1023795382     -4.0237498574     -0.6286736888
C     -0.9882249428     -2.6089498933     -2.3382624115
C     -2.8279588551     -2.2224682672     -0.932625609
C     -2.1167498231     -1.6708148039     -2.0728774196
C     -3.2282539579     -1.3404122186     0.0730626774
C     -1.938036921     -2.6359711789     1.7479393801
C     -2.7538773757     -1.5441901688     1.4464986462
C     0.287392572     -3.332006169     1.7561148524
C     -0.6689182658     -2.3925880724     2.3862744009
C     1.6001018896     -2.9662371886     1.573687472
C     1.3875636736     -3.4331914213     -0.8989991086
C     2.2253515146     -3.1201801871     0.2434326091
C     0.2726976549     -2.0866470771     -2.6977701747
C     1.4840434406     -2.5422869761     -2.0169636453
C     0.3916124208     -0.7141600681     -2.9993290117
C     -1.9860032208     -0.2886847032     -2.2638070378
C     -0.7344761883     0.1908154755     -2.8870089012
C     -3.2435972618     0.0650560031     -0.1838734811
C     -2.6910867445     0.6398148603     -1.3538603102
C     -2.4525804523     -0.2617577416     2.0000381869
C     -3.008152793     0.7289459576     1.0883113144
C     -0.2666231099     -1.0914664988     2.7965393682
C     -1.2335678633     0.0115886949     2.6752805605
C     2.0889787528     -1.7475980835     2.1957508461
C     1.1697802167     -0.7843792845     2.7701515383
C     3.1768465701     -2.0964143064     0.1622401725
C     3.159185058     -1.3044731322     1.3980178393
C     2.3818503024     -1.4157638215     -2.0086848073
C     1.7269006607     -0.2879715544     -2.6171113635
C     3.232647819     -1.1794243738     -0.9232287026
C     1.9637826558     1.0332031944     -2.2026784797
C     -0.4246789307     1.5365112966     -2.8168247475
C     0.9437079824     1.9718981897     -2.5670813866
C     -2.3565815179     2.0729559414     -1.3188178757
C     -1.3217686693     2.5403994328     -2.1929455226
C     -2.650547656     2.0341850003     1.1445946594
C     -2.5207367414     2.8064036381     -0.0827108808
C     -0.7860996698     1.4160099244     2.6958556005
C     -1.611759225     2.4447255902     2.0881770523
C     1.5622197101     0.5718135645     2.6887848211
C     0.605648508     1.6685035028     2.7224557392
C     3.3416397662     0.0530296585     1.0825203069
C     3.355424609     0.1787576368     -0.3777981087
C     2.7660235179     1.2981496405     -0.9939483878
C     2.6451094583     0.9914112564     1.8347069862
C     1.1697496191     2.7847169     1.9933628106
C     2.401810211     2.4602944208     -0.1470794752
C     2.3061962405     2.2618678368     1.2567349096
C     0.8654436131     3.2085939468     -1.9384008781
C     -0.5331752143     3.6631558398     -1.859077172
C     1.5500024903     3.491812743     -0.7024695892
C     -1.678545669     3.9061138009     0.2499103664
C     -1.0655527609     3.6260853457     1.5706201288
C     0.3507495052     3.7784760115     1.4397232978
C     -0.6690606598     4.3115055036     -0.6201696696
C     0.6270903988     4.2045460283     0.0988953328


