60

 C     0.4257453028     4.5316667751     1.2008462432
C     0.9428329305     4.6528159758     -0.0859076628
C     -0.1001007869     4.3302675395     -1.0639265733
C     -0.9382906353     4.0912973278     1.095651732
C     -1.2767279354     3.9673325001     -0.3388237487
C     -1.0687283865     2.9371326118     1.8895891068
C     1.1951496261     3.5238395972     1.9266448732
C     0.2845604707     2.5818747116     2.4286687473
C     2.0173124482     3.7180035468     -0.2466153327
C     2.2165949888     3.0222896189     1.0323830138
C     0.4595253428     3.3832737259     -1.9677067943
C     1.7731580874     2.9568329361     -1.4246367081
C     -0.3562732849     2.3958110663     -2.49683444
C     -2.0582390251     2.8563234442     -0.7600392563
C     -1.6846578208     2.2181619892     -1.9874152837
C     -1.9712204358     1.8945482304     1.5646709727
C     -2.6303196623     1.9554973681     0.2584235845
C     -1.7889764229     0.6091684425     2.2332429404
C     0.6328898379     1.2182461769     2.5530965659
C     -0.4450783382     0.2520079822     2.7184742349
C     2.5109598882     1.6608409984     1.0097605366
C     1.8852914239     0.7691312784     1.9906365029
C     2.1528897634     1.5972795908     -1.490951434
C     2.7789364538     1.0382825395     -0.298108311
C     0.1585949921     1.0682185969     -2.8162822221
C     1.4313885031     0.6577542244     -2.3566397049
C     -2.0695561857     0.8555350267     -2.2916443985
C     -0.9252615234     0.134983196     -2.8221061748
C     -3.2768312383     0.7861043321     -0.1850957596
C     -2.9846941955     0.2053435044     -1.5034924377
C     -2.6529529889     -0.4490962439     1.8729866622
C     -3.4346668773     -0.3098855037     0.6849059799
C     -2.2522435965     -1.8441781522     1.9627196359
C     -0.0904404099     -1.1022009203     2.812685645
C     -1.0069416475     -2.1713901589     2.4680474751
C     2.182213712     -0.6392530959     1.9502856798
C     1.2465069429     -1.5640981745     2.4877814643
C     3.0911664064     -0.3020758834     -0.3215923844
C     3.0370339998     -1.123181324     0.8953094695
C     1.6927440042     -0.7696226767     -2.2915933873
C     2.7714387358     -1.1590748339     -1.4444263592
C     -0.748429579     -1.2583676834     -2.6130982413
C     0.6259904169     -1.7522877374     -2.5469820193
C     -2.9195401439     -1.2344090551     -1.3773041546
C     -3.3515879273     -1.5418944101     -0.0545032981
C     -2.7122392548     -2.5250806461     0.7446722408
C     -1.839223972     -1.9836715713     -1.946595355
C     -1.895741418     -3.4544643972     0.1227802916
C     -1.517315237     -3.2246847168     -1.2913725421
C     -0.2440096992     -3.292895462     1.94054881
C     1.1639857265     -2.9365789036     2.0208070121
C     -0.7321809758     -3.9836073121     0.8098823036
C     3.0069224764     -2.4591569585     0.5068345842
C     2.8929415145     -2.492224519     -0.9766199941
C     2.0810565281     -3.4057383085     1.0412935417
C     0.8229877979     -3.1047145708     -2.1047708871
C     -0.2636823248     -3.800010929     -1.4899775947
C     0.2067694112     -4.3738842383     -0.2057770953
C     1.992089171     -3.4612331248     -1.3354190978
C     1.5564748257     -4.1509027426     -0.0873710965


