60

 C     0.0664315571     -5.0612858207     0.2149011377
C     1.3493962437     -4.6338839627     0.0698198811
C     1.7233443784     -3.7438873368     1.1788553119
C     -0.4746318364     -4.4025279114     1.4296170347
C     0.5475565612     -3.5159801765     1.9945442486
C     -1.6657329277     -3.8182793437     1.0437201011
C     -0.6880173307     -4.5525028522     -0.9617960367
C     -1.8031438831     -3.9187858291     -0.4589429172
C     1.5118604694     -3.8752663391     -1.1846546565
C     0.2139966308     -3.7530372646     -1.7991797973
C     2.3773388224     -2.6532319401     0.6163655781
C     2.2452529981     -2.7192419945     -0.8730790301
C     2.2656362791     -1.3794461593     1.1999278257
C     0.2244375884     -2.1673650555     2.3525310185
C     1.2319068753     -1.1335174759     2.1691169796
C     -2.0236180839     -2.499854627     1.4045484914
C     -1.1563815831     -1.6786947409     2.1812009934
C     -2.237433823     -2.6542879907     -0.9254852956
C     -2.6192765473     -1.873773191     0.2250056334
C     -0.1860274145     -2.4641603864     -2.2764879568
C     -1.5215173664     -1.9500836404     -1.9491712124
C     2.0321205406     -1.51562585     -1.5796677427
C     0.8487908931     -1.4350417673     -2.4068049113
C     2.77095595     -0.276831128     0.4153245793
C     2.5961723846     -0.2960607101     -1.0155721297
C     2.8347774385     0.9583167927     1.0878087034
C     0.9313484353     0.2531327118     2.5086887251
C     1.8874462524     1.2324263053     2.1907570841
C     -1.4596310659     -0.2665143441     2.216841439
C     -0.4620234369     0.6805531197     2.6683723842
C     -2.8163241034     -0.5095012454     0.1604975761
C     -2.5367106894     0.2494095521     1.3725404978
C     -1.8309559923     -0.545936918     -2.0954586842
C     -2.6811260366     0.1341323547     -1.1359311538
C     0.4610957377     -0.1389517757     -2.8109313562
C     -0.8941272261     0.2788070258     -2.788597575
C     2.4127719365     0.9693681869     -1.6990069333
C     1.3050758403     1.0347841456     -2.6055647747
C     3.0533638497     2.1376116094     0.3869247734
C     2.7740215913     2.1862224988     -1.0297689337
C     1.5777425809     2.6478439889     2.1297535895
C     2.3608504877     3.2270073495     1.0608741432
C     -0.7555413562     2.0777528252     2.6317504651
C     0.2661557461     3.0771892821     2.3122931324
C     -2.7810833179     1.6283380148     1.3310616613
C     -1.983538606     2.5245954348     2.0787903741
C     -2.7731193825     1.5529350364     -1.1535928246
C     -3.0132187846     2.2574763168     0.037987464
C     -0.9058909275     1.725672802     -2.7053362052
C     0.4758659344     2.1973271188     -2.6671367103
C     -1.8672895612     2.3753948163     -1.9617193087
C     2.0162173817     3.3781880705     -1.2256525996
C     1.7526550638     4.0057063545     0.0859402934
C     0.8018539548     3.3612336239     -1.9355113432
C     -0.3270727754     4.0373986282     1.3679172138
C     -1.7091497544     3.7039702733     1.2614512642
C     -2.3289205609     3.5343784946     0.0137361043
C     -1.5525775796     3.5971648304     -1.1949834487
C     0.3720860859     4.3617227221     0.1723711642
C     -0.2344445363     4.0474973911     -1.1318030293


