60

 C     0.7874901706     -4.629147057     -0.0251275814
C     -0.4095539705     -4.4598024114     0.7836066738
C     -1.4762601133     -4.1560587009     -0.0705458589
C     0.4732892112     -4.1824984148     -1.3686894719
C     -0.9033008536     -3.9237359696     -1.4281346654
C     1.3668357785     -3.1099871171     -1.730959837
C     1.7450113299     -3.7346190739     0.4704181282
C     2.2518092912     -2.9057496545     -0.6048073448
C     -0.1044569197     -3.5423521781     1.8726491825
C     1.2652908103     -3.0619942934     1.665803857
C     -1.0502454051     -2.5989249521     2.2443468431
C     -2.3524848691     -3.0760833302     0.2154149148
C     -2.2613597536     -2.4190214827     1.456452499
C     -1.4091916859     -2.6848129713     -1.9037074051
C     -2.4278123058     -2.2309166585     -0.9775731952
C     0.8913307216     -1.947315455     -2.4194262741
C     -0.5453972371     -1.6895682366     -2.5003137364
C     1.7552259136     -0.8219489173     -2.363537317
C     2.7939352739     -1.650297202     -0.3070495304
C     2.780293284     -0.7084236532     -1.3647413485
C     1.6473425797     -1.7306168013     1.945808183
C     2.6576056845     -1.1156063446     1.0701907498
C     -0.6441214475     -1.2795277134     2.7044480081
C     0.7000023225     -0.829791424     2.6147771645
C     -2.6221317859     -1.0416224302     1.5403301456
C     -1.6986407186     -0.3565459402     2.4306225348
C     -2.7973622919     -0.8868210297     -0.9111625619
C     -3.0841699517     -0.3314512747     0.4118403004
C     -1.024234918     -0.3287686227     -2.5883057402
C     -2.2841138957     0.0202637397     -1.9410594475
C     1.3076841357     0.5019579892     -2.6485909656
C     -0.0602323842     0.764101306     -2.8177518107
C     3.0541847152     0.6806166422     -1.1435947474
C     2.1936778742     1.4641026765     -1.9601838535
C     2.9674156862     0.2139505747     1.2795490685
C     3.3558427866     1.1105649997     0.1716809858
C     0.9559037618     0.6027754209     2.6917337207
C     2.2367845224     1.037883586     2.2455536037
C     -1.4945432454     1.0486937541     2.3923477607
C     -0.1578301695     1.5736231647     2.6669919162
C     -3.1509589596     1.0821196671     0.5512639347
C     -2.4055035389     1.791914641     1.5959150825
C     -2.6484150834     1.3843867426     -1.8271569868
C     -3.1966379267     1.8755475131     -0.5948793649
C     -0.458291559     2.138776967     -2.6155752804
C     -1.7742289411     2.4270050918     -2.2984486727
C     1.7486042394     2.757213619     -1.548439985
C     0.4289770687     3.1250755149     -1.9381576175
C     3.0570148851     2.4203402574     0.5345272361
C     2.4429773183     2.3872577845     1.8757802295
C     2.2645231839     3.2844749008     -0.2910028553
C     0.0999630359     2.9238233817     2.2687212779
C     1.4197058482     3.3151170392     1.9032055801
C     1.3592612799     3.9686024098     0.5880914209
C     -2.0556578036     3.091054082     1.0813141426
C     -2.562846498     3.1614729201     -0.2781153624
C     -1.7565148443     3.5382135935     -1.3264962043
C     -0.3992140697     3.9378078052     -1.0925752611
C     -0.8070146079     3.6262935669     1.3583543936
C     0.0147450413     4.1789780594     0.2543710454


