60

 C     0.0141112556     -4.7146795469     -0.5701066274
C     1.3823250362     -4.2982170395     -0.5229063711
C     1.7203381546     -3.9712521633     0.8091871182
C     -0.56934153     -4.444271504     0.7264378235
C     0.4595497402     -3.9855740518     1.5789704778
C     -1.6874564687     -3.5707005812     0.5471569543
C     -0.6474155874     -3.849402419     -1.4882534822
C     -1.7958011225     -3.2696259832     -0.8819279164
C     1.6035618685     -3.2989585512     -1.5727621988
C     0.3006387094     -2.9708659133     -2.1524681149
C     2.4690235858     -2.2564454261     -1.3260354018
C     2.3861569158     -2.7508415622     1.0912687871
C     2.9680759063     -2.0198404923     0.0361004201
C     0.3590534962     -2.74518072     2.2708943477
C     1.5931180961     -2.0094232296     2.0810040161
C     -1.9468676694     -2.5078128994     1.4583564185
C     -0.8652518495     -2.0009307869     2.3064579392
C     -2.9124671097     -1.5730658786     0.9969417305
C     -2.2697097444     -2.011940008     -1.3291592909
C     -3.1119666724     -1.3262001421     -0.4295563941
C     -0.0489045069     -1.6405108455     -2.5014323082
C     -1.4330958825     -1.2153580678     -2.2588819566
C     2.2430804201     -0.9578258619     -1.9238646575
C     1.00274645     -0.6108183418     -2.5184452347
C     3.1270030581     -0.6275934087     0.177608727
C     2.8845973279     0.0213185698     -1.1006302457
C     1.6526627062     -0.6089736421     2.1751793181
C     2.6461610651     0.0563167358     1.3380243007
C     -0.8016987935     -0.5700157504     2.6062725966
C     0.4676399528     0.1504209408     2.5782204681
C     -3.0684472482     -0.3496094038     1.6559282978
C     -1.988378949     0.2009086301     2.3974940778
C     -3.4152125525     0.0753674275     -0.5830465608
C     -3.5117098727     0.6607901997     0.7104423525
C     -1.7263767768     0.1435697191     -2.3880881465
C     -2.7657754536     0.8006551983     -1.6012211116
C     0.6696360563     0.8127317832     -2.5987808143
C     -0.7043843867     1.1355969125     -2.6653701578
C     2.6490103768     1.3973119351     -1.2092940444
C     1.5957491968     1.8563143022     -2.1056720339
C     2.6280407282     1.442984013     1.2534908284
C     2.9071265676     2.145715115     -0.0073493372
C     0.4919825044     1.6045293055     2.4763482357
C     1.6921230497     2.2278187009     2.0008908588
C     -1.9366680531     1.6187678379     2.099464601
C     -2.8639517388     1.8696848687     0.994441787
C     -0.7555333963     2.3609759791     2.2216095911
C     -2.3816498311     2.1548025988     -1.3836175303
C     -1.1852322719     2.4100691995     -2.2019233854
C     -2.4521842105     2.7349273476     -0.072088743
C     1.1219028534     3.1922540838     -1.9206638759
C     -0.3160504958     3.4353913426     -1.9111942139
C     2.4565999246     3.455097661     0.1167696327
C     1.6976352037     3.539246359     1.4137867613
C     1.6665856102     4.0432553406     -0.8787093748
C     -0.7138495686     3.6064802562     1.4745235298
C     -1.4862359867     3.7175092185     0.2740833495
C     -0.6123378898     4.2884469423     -0.7591893119
C     0.5493086858     4.2615702686     1.1946959691
C     0.5684114164     4.7351054284     -0.199412674


