60

 C     -1.2429796173     4.9005996415     0.9417717386
C     -0.0071618862     5.2702325667     0.2557069843
C     -0.1361070568     4.9387731186     -1.0789934792
C     -2.0723952068     4.1821338268     -0.0560547429
C     -1.4236934433     4.2246930415     -1.3010434017
C     -2.4185273723     2.8685225607     0.4462509116
C     -0.8665926161     3.8784236063     1.8144920562
C     -1.7062772482     2.6960351089     1.6958844475
C     1.1072217501     4.4410076669     0.7553029569
C     0.5872772726     3.6152789676     1.7725895137
C     0.9389703295     4.0702005312     -1.5220109805
C     1.785875434     3.7853200659     -0.3730512895
C     -1.1126273827     3.0098484364     -1.9958950373
C     0.3606465629     2.9596946593     -2.1530814176
C     -2.4512108494     1.7421853906     -0.4076954853
C     -1.7557899203     1.7907403856     -1.6799226443
C     -2.4739820452     0.4614359055     0.2372458099
C     -1.2376769147     1.4391911613     2.0889331741
C     -1.907880441     0.3024343241     1.5267189533
C     1.0698929091     2.2871324968     1.9677591161
C     0.1790868537     1.2261076828     2.4079912225
C     2.2888215068     2.4999980916     -0.2036277925
C     2.1869971318     1.8805572949     1.1292481596
C     1.0222990676     1.6950258356     -2.1451535288
C     2.160142165     1.5138282683     -1.2944018323
C     -1.1708788316     0.5382737978     -2.1687799478
C     0.2380311839     0.5350358062     -2.5018296598
C     -2.5765237286     -0.7144794867     -0.6065166012
C     -1.7959902881     -0.7065163735     -1.842749579
C     -2.8615326834     -1.9033333198     0.053939892
C     -1.5671198858     -1.0394980649     1.9778370206
C     -2.3537375352     -2.0732581396     1.4400962368
C     0.6663492934     -0.1257901348     2.5145125628
C     -0.2285236432     -1.2943193959     2.4613356941
C     2.6676531129     0.5974084605     1.2883824876
C     2.0414623219     -0.3353953808     2.1875818323
C     2.7087795562     0.1901952193     -1.1276892779
C     3.2190390528     -0.1742126014     0.1674376708
C     0.9022910075     -0.7055418914     -2.5514354785
C     2.1974860177     -0.8714135307     -1.927268495
C     -1.1928021957     -1.9798945704     -2.236549115
C     0.2008517052     -1.9485901162     -2.5624755788
C     -2.654853207     -3.1565992591     -0.5919544431
C     -1.7125693599     -3.2057098078     -1.7020382686
C     -1.9545920538     -3.429540043     1.5527822261
C     -2.3711134366     -4.175726204     0.3716354458
C     0.3002351174     -2.6465699149     2.2592649271
C     -0.5721047604     -3.6991386346     1.8385052654
C     2.4923942385     -1.6264669641     1.8185900279
C     3.233697452     -1.5154056116     0.5561508055
C     1.6775297561     -2.7516215799     1.8105099142
C     2.291539416     -2.2607350721     -1.5431162389
C     1.0985877464     -2.957076288     -2.0338299208
C     2.7806271678     -2.578332509     -0.2710116781
C     1.9880742873     -3.4977514131     0.5726701341
C     -0.8218256346     -4.2807253124     -1.3707029441
C     -1.2354691796     -4.8683194042     -0.0928991185
C     -0.1466248549     -4.6255304874     0.7880393589
C     0.5944361019     -4.0722582711     -1.3771270981
C     1.042867561     -4.3205639367     0.0197387289


