60

 C     1.5106912224     -4.5061224536     -0.2342648541
C     1.1614196724     -4.4218402628     1.151310874
C     -0.2425318677     -4.2887037138     1.2913152371
C     0.2914511495     -4.4086926748     -1.0220325941
C     -0.8128727444     -4.3617565881     -0.0679670175
C     0.4492022992     -3.3048477327     -1.8956473237
C     2.3992431279     -3.4634309909     -0.5473206438
C     1.7760485792     -2.721386135     -1.6181175959
C     1.8444373914     -3.3147601708     1.7685720776
C     2.5988348125     -2.7069709007     0.7130084546
C     -0.479431826     -3.1069912502     2.0610675867
C     0.8334340142     -2.4919616427     2.3605920169
C     -1.5899530121     -2.2576677613     1.8067677243
C     -1.8680280997     -3.5444219403     -0.3502686423
C     -2.4256498596     -2.6520805626     0.6874685642
C     -0.635620174     -2.4182854019     -2.2242140035
C     -1.8828046495     -2.7360088752     -1.5822826548
C     -0.3752850834     -1.0220411139     -2.5652609937
C     1.9624361941     -1.3472044891     -1.7484948793
C     0.9839840863     -0.4997665754     -2.4134748762
C     2.6979483808     -1.3198378833     0.6525885636
C     2.7630917278     -0.7126559586     -0.6794144716
C     0.9502723632     -1.0912698823     2.3850039421
C     2.080987316     -0.49632265     1.6777848222
C     -1.5262733116     -0.8454494714     2.1535034246
C     -0.2354523219     -0.2545137098     2.5122953747
C     -2.5307553378     0.0538588134     1.5975650394
C     -3.2028148572     -1.6982782371     0.0304524874
C     -2.8528167624     -1.7383056899     -1.4078656217
C     -3.2802033743     -0.3679855501     0.4312998399
C     -1.4604287362     -0.0447885598     -2.5038192068
C     -2.681401589     -0.4291890511     -1.832680883
C     -3.1745305914     0.4472571532     -0.7660947165
C     -1.1807764436     1.3411687041     -2.5029990628
C     1.2342345711     0.9303509306     -2.4638125729
C     0.1512937496     1.8462595818     -2.6137232893
C     2.9783137461     0.6249521859     -0.7280821972
C     2.4010231268     1.4583689224     -1.7850958787
C     2.2297893136     0.9252129884     1.6050966706
C     2.9821907944     1.4218400827     0.4908473635
C     -0.0606783561     1.1833997318     2.5720780973
C     1.2436966438     1.8061835132     2.2360956725
C     -2.3579384966     1.4266681935     1.7291308819
C     -1.2316108957     1.9863645387     2.4106158305
C     -2.8180558342     1.7943745234     -0.7007150528
C     -1.942591191     2.3027652207     -1.7119819096
C     -2.7085223118     2.3622854585     0.6301555272
C     0.1814629759     3.2012156475     -2.0726887323
C     -1.1267901735     3.4620577244     -1.4747535909
C     2.4603624439     2.7830101502     -1.3564393845
C     2.8714294957     2.7625132828     0.0784040037
C     1.3530991952     3.6805125867     -1.4649881505
C     1.2894115276     3.2025759454     1.9051667539
C     2.0954497534     3.6461170347     0.7906655438
C     1.2281518921     4.3637879712     -0.1773416832
C     -1.1454664464     3.3569209269     2.0024816693
C     -2.0240253847     3.5470298434     0.820170826
C     -1.2172180956     4.132397866     -0.222623341
C     0.0595219918     3.949143158     1.7718712679
C     0.0076145692     4.5749451996     0.4110901869


