60

 C     -1.0239708025     -3.8468617231     0.05566822
C     -1.8190384914     -3.3382167349     1.0579600712
C     -0.9846264963     -3.0330707467     2.2164211515
C     0.368387402     -3.8506446757     0.5516405528
C     0.3813677078     -3.2325877335     1.8678438346
C     1.2015556697     -3.4162284084     -0.4572229483
C     -1.0364925724     -3.2674578504     -1.2511608947
C     0.357267305     -3.2191222472     -1.6729708672
C     -1.9517356427     -2.2374638742     -1.6021759299
C     -2.6980893701     -2.236321635     0.8034965333
C     -2.8614993847     -1.7556426375     -0.5399476988
C     -1.4466904552     -1.7996544498     2.73445811
C     -2.5481757671     -1.3019279196     1.8884230932
C     -0.5032997528     -0.9021053946     3.1951866942
C     1.3544613045     -2.2315544893     2.1699020166
C     0.8975643934     -1.1550213384     3.0083375431
C     2.3137315119     -2.5147920482     -0.180016968
C     2.4101963108     -1.9300256211     1.1808059515
C     2.794742485     -1.7838023925     -1.293134768
C     0.7646675449     -2.3427563517     -2.6363957073
C     2.0833518345     -1.7763525333     -2.5507378545
C     -1.495025009     -1.2619859387     -2.6145705655
C     -0.1666177469     -1.3218406749     -3.1039626793
C     -2.0952325182     0.0288368974     -2.6851476777
C     -3.3832649338     -0.4428752813     -0.623842602
C     -3.1393244361     0.366450307     -1.7937340321
C     -2.7615220853     0.0904637769     1.7165230081
C     -3.364722696     0.4633195754     0.4864375478
C     -0.7379050407     0.5500820026     3.1051886306
C     -1.868080626     1.0615732849     2.4054008277
C     1.5408925217     0.1282020861     3.013206098
C     0.5300779019     1.1925749413     3.0837744493
C     3.1250697232     -0.7171126578     1.3293931389
C     2.7058080755     0.3130480372     2.2911685624
C     3.3535038425     -0.451634662     -1.1171432123
C     3.6078302792     0.0111379488     0.1696632863
C     1.9710582444     -0.4322219043     -2.9419682953
C     0.6097649841     -0.113149453     -3.262833691
C     2.7500637206     0.4250348853     -2.0878447198
C     -1.3151131198     1.2496253137     -2.8781427215
C     0.0933735152     1.1871405885     -2.9883118037
C     -3.1198794784     1.7511792455     -1.4771313561
C     -3.20811256     1.8324720308     -0.0554102787
C     -1.9753168403     2.3201383587     -2.1530037195
C     -1.7267758309     2.3684114753     1.8559708251
C     -2.4393007494     2.7626460499     0.6349583011
C     0.7128396063     2.4355103894     2.4016816696
C     -0.4586348005     3.0476337912     1.8696826515
C     2.9403956363     1.6111662572     1.7232260619
C     3.4618891942     1.405915932     0.396367701
C     1.9581520585     2.6199726122     1.6907148686
C     2.2787598968     1.7268298613     -1.7447897118
C     0.9386620171     2.1626933739     -2.2483819978
C     2.7634367358     2.2529491812     -0.5094368701
C     1.9275723688     3.1163795587     0.3095921822
C     -1.188970017     3.2459107834     -1.4831374754
C     -1.549149742     3.5953021481     -0.1242903014
C     -0.3712095605     3.7885184799     0.6278237594
C     0.2749102237     3.1744961798     -1.54184699
C     0.7664221102     3.626816224     -0.2222232037


