60

 C     0.1543945598     4.1196938782     1.7784120929
C     0.9006036502     4.3048540447     0.5510958612
C     -0.0117345246     4.2298332696     -0.5419621132
C     -1.2127765182     3.7821860555     1.4352085122
C     -1.3418463951     3.8861343048     0.0173270001
C     -1.5774703756     2.5692061719     2.0927169292
C     0.6983500745     3.0335722748     2.4536495675
C     -0.3618780581     2.0748203865     2.7484567107
C     2.0590087621     3.443599411     0.5810755608
C     1.9113557229     2.593495571     1.759575612
C     2.4860258154     2.8554320332     -0.6181304208
C     0.4139504886     3.5984010543     -1.7400170862
C     1.7184309566     3.0743410481     -1.8047750646
C     -0.4635470829     2.6308572548     -2.4384835542
C     -2.1370825879     2.9337211988     -0.6355536537
C     -1.7046038002     2.332772318     -1.9113667382
C     -2.4192801294     1.6251756566     1.4616287622
C     -2.8013385734     1.9082188753     0.103769444
C     -2.3316394416     0.2244500438     1.8795569073
C     -0.0764997753     0.7202753188     2.7992417936
C     -1.1613777657     -0.2573747432     2.5750375175
C     2.1793242962     1.2298658842     1.7074077786
C     1.3104758811     0.3185518212     2.4847873092
C     2.8891655922     1.4605809571     -0.6353661366
C     2.8136509511     0.6567604251     0.5044162634
C     1.6781498298     1.8192840176     -2.5525777804
C     0.3365118637     1.5254536185     -2.938050768
C     2.4631683295     0.8579821111     -1.9193710368
C     -0.1081098467     0.1785527774     -2.9293146451
C     -2.2220462462     0.9876009475     -1.9981732384
C     -3.0324123575     0.7994256475     -0.8009599802
C     -1.4925404807     -0.0999700108     -2.5333717721
C     -3.0677037931     -0.7272956781     1.1033694545
C     -3.2895349588     -0.4463557743     -0.3225693661
C     -2.7843814448     -2.0861027517     1.182522165
C     -0.8292622308     -1.6704901792     2.5653400077
C     -1.6870052449     -2.6065147515     1.8947963101
C     1.5898001962     -1.019384452     2.4047510607
C     0.5644427789     -2.0432128533     2.6288753627
C     2.8799679971     -0.789546635     0.3260131045
C     2.5759183453     -1.571203186     1.4568998775
C     2.1303449756     -0.5049182491     -2.0248886373
C     0.8911914104     -0.8567661529     -2.7000267563
C     2.6799728475     -1.3962649037     -1.0069844261
C     0.452778779     -2.2028218542     -2.5764070211
C     -1.8876306926     -1.4608181261     -2.1285678474
C     -2.882319484     -1.6151863346     -1.0893643085
C     -2.7740011907     -2.6772281038     -0.174716059
C     -0.9621611556     -2.5196625422     -2.2711182315
C     -1.1433764834     -3.7241323199     1.0979739448
C     -1.7769410387     -3.6585593378     -0.2438108527
C     -0.9564580988     -3.6739546716     -1.3976406176
C     1.01936429     -3.2295671959     2.0496844469
C     2.2682041649     -2.9465772948     1.3195842505
C     0.1962192704     -4.0703944116     1.2125478574
C     2.3567893533     -2.7633170249     -1.1038422966
C     1.2729574918     -3.1600510111     -1.9785202119
C     0.4136023365     -4.0911113542     -1.2458347895
C     2.224678488     -3.5722726755     0.0851479072
C     0.9681604769     -4.3340437979     0.0008963382


