60

 C     -4.725659825     -0.3919788869     -0.0151226904
C     -4.5059133521     0.906469079     -0.5885330937
C     -3.9276416298     0.6916489806     -1.8548595736
C     -4.1534446834     -1.431874071     -0.8496161541
C     -3.6840461877     -0.780052677     -2.004851568
C     -3.2425725773     -2.1911526516     -0.0464412912
C     -4.1567511117     -0.4543322801     1.2736865223
C     -3.3462260783     -1.6421426008     1.3331303079
C     -3.7848517947     1.6839327597     0.4052819293
C     -3.5772263849     0.8237311939     1.6032717829
C     -2.7185927229     2.4632750418     -0.0152341298
C     -2.7444520216     1.3593436036     -2.2351696665
C     -2.2173670459     2.3689829972     -1.3872539259
C     -2.3602508799     -0.9552972143     -2.4325685171
C     -1.7982970696     0.3768949673     -2.7348903671
C     -1.948730721     -2.5100723303     -0.5272294531
C     -1.506355029     -1.9168336819     -1.8000035194
C     -0.8944648643     -2.8068286363     0.4579565703
C     -2.2416849488     -1.6132163621     2.1479638113
C     -1.0493109031     -2.3601351329     1.8006623891
C     -2.3690323884     0.877279552     2.3416365338
C     -1.816425075     -0.3853821115     2.7873033045
C     -1.5647772167     2.6855395413     0.8458750505
C     -1.3931078572     1.9420950074     2.0501545071
C     -0.8189977694     2.5931031324     -1.3461718182
C     -0.4329857699     2.9510778802     0.0153384005
C     -0.4288704709     0.591478668     -2.7087319432
C     0.1009485735     1.8189865472     -2.1008667747
C     -0.1009485735     -1.8189865472     -2.1008667747
C     0.4288704709     -0.591478668     -2.7087319432
C     0.4329857699     -2.9510778802     0.0153384005
C     0.8189977694     -2.5931031324     -1.3461718182
C     1.5647772167     -2.6855395413     0.8458750505
C     0.0568677708     -1.8050433901     2.5086651293
C     -0.4284979632     -0.5480563215     3.0766183471
C     1.3931078572     -1.9420950074     2.0501545071
C     -0.0568677708     1.8050433901     2.5086651293
C     0.4284979632     0.5480563215     3.0766183471
C     0.8944648643     2.8068286363     0.4579565703
C     1.0493109031     2.3601351329     1.8006623891
C     1.506355029     1.9168336819     -1.8000035194
C     1.948730721     2.5100723303     -0.5272294531
C     1.7982970696     -0.3768949673     -2.7348903671
C     2.3602508799     0.9552972143     -2.4325685171
C     2.2173670459     -2.3689829972     -1.3872539259
C     2.7185927229     -2.4632750418     -0.0152341298
C     2.7444520216     -1.3593436036     -2.2351696665
C     3.7848517947     -1.6839327597     0.4052819293
C     2.3690323884     -0.877279552     2.3416365338
C     1.816425075     0.3853821115     2.7873033045
C     2.2416849488     1.6132163621     2.1479638113
C     3.5772263849     -0.8237311939     1.6032717829
C     3.2425725773     2.1911526516     -0.0464412912
C     3.3462260783     1.6421426008     1.3331303079
C     4.1567511117     0.4543322801     1.2736865223
C     3.6840461877     0.780052677     -2.004851568
C     3.9276416298     -0.6916489806     -1.8548595736
C     4.5059133521     -0.906469079     -0.5885330937
C     4.1534446834     1.431874071     -0.8496161541
C     4.725659825     0.3919788869     -0.0151226904


