60

 C     -0.9019406133     4.6194105686     0.4743560829
C     0.3411971022     4.5945235576     1.0817330229
C     0.3150994837     3.5609971979     2.1514030915
C     -1.7936773271     3.7466987539     1.2696948965
C     -0.9829351721     2.983655838     2.2077845647
C     -2.6144064993     3.0797981577     0.391392046
C     -1.0560087605     4.2610000222     -0.9440212606
C     -2.1620717055     3.3685889118     -1.0022919867
C     0.1035337869     3.9130533431     -1.6937410349
C     1.5045195622     4.3622485301     0.295085051
C     1.4085286234     4.1057883671     -1.093852782
C     1.4555089831     2.7432927445     1.991661024
C     2.2773727768     3.2993664406     0.9333180546
C     1.3436983512     1.3219268251     2.1428150507
C     -1.126665668     1.5579340414     2.2868678971
C     0.0619444083     0.7268888195     2.45216499
C     -2.8431957855     1.6960092088     0.5132793494
C     -2.2126588573     0.9305458276     1.5369291023
C     -2.1309123071     2.1400866591     -1.6764786876
C     -2.7938990843     1.1458480668     -0.8383084573
C     0.1457208336     2.6174845808     -2.3649535766
C     -0.9361978648     1.7047336427     -2.3689201068
C     2.2170271032     2.9439771844     -1.3685600058
C     2.709675156     2.4334334217     -0.0794572135
C     1.4802743518     2.0537473054     -2.1698350166
C     2.2507074236     0.4911437464     1.3786066883
C     2.7472070845     1.0471647133     0.1352226628
C     2.2126588573     -0.9305458276     1.5369291023
C     -0.0619444083     -0.7268888195     2.45216499
C     1.126665668     -1.5579340414     2.2868678971
C     -2.2507074236     -0.4911437464     1.3786066883
C     -1.3436983512     -1.3219268251     2.1428150507
C     -2.6293223596     -0.1923798744     -1.0392030196
C     -2.7472070845     -1.0471647133     0.1352226628
C     -0.6911407239     0.265154711     -2.5017048017
C     -1.7006899597     -0.6530352032     -2.1009857251
C     1.7006899597     0.6530352032     -2.1009857251
C     2.6293223596     0.1923798744     -1.0392030196
C     0.6911407239     -0.265154711     -2.5017048017
C     2.8431957855     -1.6960092088     0.5132793494
C     2.7938990843     -1.1458480668     -0.8383084573
C     2.6144064993     -3.0797981577     0.391392046
C     0.9829351721     -2.983655838     2.2077845647
C     1.7936773271     -3.7466987539     1.2696948965
C     -1.4555089831     -2.7432927445     1.991661024
C     -0.3150994837     -3.5609971979     2.1514030915
C     -2.709675156     -2.4334334217     -0.0794572135
C     -2.2773727768     -3.2993664406     0.9333180546
C     -1.4802743518     -2.0537473054     -2.1698350166
C     -2.2170271032     -2.9439771844     -1.3685600058
C     0.9361978648     -1.7047336427     -2.3689201068
C     2.1309123071     -2.1400866591     -1.6764786876
C     2.1620717055     -3.3685889118     -1.0022919867
C     -0.1457208336     -2.6174845808     -2.3649535766
C     0.9019406133     -4.6194105686     0.4743560829
C     -0.3411971022     -4.5945235576     1.0817330229
C     -1.5045195622     -4.3622485301     0.295085051
C     -1.4085286234     -4.1057883671     -1.093852782
C     1.0560087605     -4.2610000222     -0.9440212606
C     -0.1035337869     -3.9130533431     -1.6937410349


