60

 C     1.2445436831     -4.7629565659     -0.6024188441
C     2.2423406681     -3.8515920897     -0.2037800762
C     2.0830563917     -3.5330199295     1.1959763552
C     0.2942228544     -4.8171073827     0.5160759753
C     0.7898452598     -4.0827254942     1.618014291
C     -1.0078442412     -4.5001530889     0.041613732
C     0.5243923295     -4.1143371176     -1.6813780511
C     -0.8494454022     -4.0841204225     -1.3795722364
C     2.269379834     -2.7272560524     -1.1238854755
C     1.1306348998     -2.8508933659     -2.0251171992
C     2.61981485     -1.4580522708     -0.6745878107
C     2.1643556636     -2.2123399383     1.6197916747
C     2.6663024645     -1.2046145775     0.7582683311
C     0.0412853113     -3.0014092651     2.183064581
C     0.9273614622     -1.8565886721     2.3280575193
C     -1.8114750027     -3.5388586213     0.6679982625
C     -1.3047413017     -2.7177469947     1.7735316571
C     -1.6470784921     -2.9523143303     -1.6310739851
C     -2.4369202007     -2.7931298029     -0.4269244301
C     0.3436106896     -1.6837438601     -2.3544999535
C     -1.1048181043     -1.7426874887     -2.2062350204
C     2.2368460596     -0.3378629951     -1.5198075326
C     0.9777065675     -0.3871941109     -2.2543095957
C     2.7490235196     0.8823344157     -1.1342923272
C     2.5288666871     0.1348061643     1.1947976069
C     3.0484023722     1.0896254428     0.2918940696
C     0.4866873471     -0.5219361103     2.4262807014
C     1.4324552201     0.5405849544     2.0831393552
C     -1.8019464416     -1.3574016995     1.9459825478
C     -0.9403219549     -0.249651198     2.3662137602
C     -3.0566800043     -1.6249673822     -0.178655959
C     -2.9512180509     -1.0026776038     1.1534613619
C     -1.8362700775     -0.4995473417     -2.0189556091
C     -2.9709323689     -0.5521506484     -1.1366403843
C     0.2408931093     0.8662713379     -2.3841619251
C     -1.20021444     0.8047591967     -2.1995770275
C     2.2815987408     2.1277094787     -1.6640905156
C     0.9533872393     2.1512307521     -2.2261215574
C     2.9142777491     2.4326749128     0.5531386649
C     2.6662015654     3.1283585681     -0.7081862735
C     1.0535291577     1.9277159092     2.1263234579
C     1.95632943     2.9035051758     1.519604593
C     -1.3583203398     1.145117142     2.2183819584
C     -0.3829025062     2.256955326     2.2016781659
C     -3.3358547098     0.311121486     1.0073501504
C     -3.4344532909     0.6023684391     -0.4541463013
C     -2.6167487594     1.3794111351     1.5742454092
C     -1.8788762848     2.0086349878     -1.6993686142
C     -2.9343547976     1.8469244492     -0.7055442833
C     -2.7182857399     2.473462509     0.6303360936
C     0.197116342     3.3594685272     -1.9925681453
C     -1.1923966845     3.231356691     -1.628767313
C     1.8852221449     4.2409641752     -0.4402828005
C     1.4781505002     4.1528458275     1.0306498878
C     0.7276014487     4.4407099555     -1.181699013
C     -0.8050704007     3.5331974466     1.6870728115
C     -1.922937481     3.5486320239     0.7456740302
C     -1.467641949     4.170836933     -0.5054264022
C     0.1361787514     4.4674379764     1.1177808639
C     -0.3238712868     4.8600148819     -0.2343228066


