60

 C     1.8875014801     -4.1633481928     0.8082698604
C     0.4870680027     -4.4182082867     0.8879436182
C     -0.0881330325     -4.4760108756     -0.4120507184
C     2.1325881114     -3.7474528804     -0.5634442721
C     0.948519455     -3.9775503774     -1.3103690931
C     2.6455923291     -2.4052026481     -0.5652636469
C     2.0844418303     -2.9842518517     1.5943636477
C     2.7248872612     -1.9777512748     0.818930492
C     -0.1160823366     -3.5225210028     1.8872566115
C     0.913257935     -2.5899205034     2.3359318681
C     -1.376075538     -3.0203735575     1.6491481124
C     -1.2799284604     -3.7584646396     -0.7016465571
C     -2.0275509082     -3.1885834121     0.3452328532
C     0.3847710766     -2.9658971479     -2.1412576746
C     -1.0342589411     -2.8977014408     -1.862463063
C     2.2645991928     -1.4289595174     -1.5545710863
C     1.1022636647     -1.7502535918     -2.4012451311
C     2.5712754052     -0.0644086734     -1.2682133928
C     2.5776910333     -0.633197     1.1554143892
C     2.9273041568     0.3006176172     0.106026591
C     0.6341382031     -1.2079908364     2.559774992
C     1.6270331059     -0.2215956234     2.1603151989
C     -1.7342273502     -1.7016151891     2.1472136383
C     -0.7603627663     -0.7667379315     2.6010815451
C     -2.8297136021     -2.0223158378     0.1226255561
C     -2.8281522687     -1.245510205     1.3454324106
C     -1.7793885078     -1.7080418678     -2.0838985304
C     -2.8297971839     -1.3190243548     -1.1307340443
C     0.3283356863     -0.6692501017     -2.8644900652
C     -1.1010785879     -0.6638682989     -2.7687204007
C     1.9820582854     1.0158345171     -2.0805152145
C     0.7898216061     0.6944098934     -2.773136951
C     2.1346848575     2.3657283134     -1.6956199804
C     2.9976920002     1.6273768878     0.4873977722
C     2.9096024522     2.6863020776     -0.502553498
C     1.3742375843     1.1987137927     2.3045705478
C     2.3253432552     2.0842035386     1.6985902962
C     -1.0775020832     0.672155528     2.5411185542
C     0.0091264762     1.6670801699     2.5371852525
C     -3.1735862954     0.094342763     1.3400091101
C     -2.350286494     1.0587642066     2.0445824929
C     -3.2650826582     0.0402398711     -1.1150531673
C     -3.6007955255     0.6683351562     0.113814594
C     -1.517031934     0.7236038963     -2.6793964592
C     -0.3394368169     1.5804609713     -2.7222539928
C     -2.6037707291     1.0749951393     -1.9145780426
C     1.044387055     3.3129592491     -1.7507969309
C     -0.2728866462     2.8428535512     -2.0734061173
C     2.443915614     3.8469110607     0.0832260806
C     2.0095758242     3.4628683835     1.4488997732
C     1.2590574328     4.2508567336     -0.6529046968
C     -0.2923168999     3.0072117856     2.1213796426
C     0.704048145     3.8809995877     1.6193986899
C     0.2265888875     4.3688424411     0.2733532247
C     -2.5045057244     2.3164169986     1.3250104682
C     -3.1676492337     2.0406364783     0.0923286332
C     -2.5376651194     2.3296847667     -1.1449061104
C     -1.4083120355     3.1969757251     -1.1860321425
C     -1.483894071     3.2327384645     1.3077917377
C     -1.071935655     3.8528875557     0.0559027251


