60

 C     -0.3811902831     -5.0704425729     0.3312917468
C     -1.5161537971     -4.4977222583     0.8088245192
C     -2.1766465633     -3.7155533773     -0.2468328791
C     -0.2282419216     -4.6109726249     -1.0806030361
C     -1.3047841672     -3.6714813828     -1.4025142703
C     1.0563285293     -4.1409073536     -1.2003252613
C     0.7469695487     -4.519499008     1.1140450057
C     1.6821556328     -4.1038620072     0.1852276608
C     -1.2079143556     -3.57793126     1.9229126089
C     0.2356681902     -3.505195135     2.0443968915
C     -2.5622484977     -2.5183799317     0.3387722675
C     -1.9206173559     -2.4057327262     1.6988211349
C     -2.5904207403     -1.3515663627     -0.4227936663
C     -1.0115722914     -2.3919762797     -2.0018594621
C     -1.8624532325     -1.2724841104     -1.6598312228
C     1.3845173208     -2.9147520038     -1.8413216872
C     0.3768684018     -2.0089771541     -2.3230540964
C     2.3750110788     -2.8890572849     0.3030151906
C     2.4344619796     -2.32848192     -1.0389172209
C     0.8552454001     -2.2134948596     2.1376586859
C     2.0736462111     -1.9594373922     1.3578139671
C     -1.3888595597     -1.1396457393     2.0666672412
C     0.0070571391     -1.0303885529     2.3649314348
C     -2.8081895353     -0.1450766986     0.3392850014
C     -2.1100221688     0.0233647785     1.5864984682
C     -3.1623979596     0.9646977597     -0.4151476445
C     -1.5968043798     0.0733447994     -2.1592007634
C     -2.5291611686     1.0756524859     -1.7705571194
C     0.740624416     -0.5888491751     -2.4918981228
C     -0.2680700691     0.4725932419     -2.5431939475
C     2.7714839881     -1.0266308076     -1.2037040991
C     2.0423787292     -0.1728819855     -2.1116359404
C     2.5392634404     -0.6067382708     1.1913823728
C     3.1228023781     -0.2361026971     -0.0612711276
C     0.5728767437     0.3145505265     2.4029659819
C     1.9352671631     0.4832531095     1.9561297174
C     -1.700432501     1.3426985209     1.9678372772
C     -0.3108771938     1.487072137     2.4451287663
C     -3.1718050981     2.2216318601     0.187764022
C     -2.3599567446     2.4482138235     1.342217919
C     -2.2476072301     2.4258625173     -1.9719489332
C     -2.792752427     3.1936669532     -0.8338624373
C     0.1123615286     1.8987662583     -2.434853399
C     -0.9127072084     2.8600726345     -2.2018978462
C     2.3548802173     1.1793976373     -1.7454147837
C     3.1149266265     1.1135185406     -0.5107623192
C     1.4685614806     2.2608236671     -1.9713376523
C     2.4280198126     1.8034150544     1.7336849779
C     3.0466306704     2.1394480521     0.412708872
C     0.270942453     2.783178999     2.3657110856
C     1.6658814194     2.913393628     2.1148098127
C     -1.6298813002     3.6934460487     1.0730271961
C     -1.8604540258     4.0621410517     -0.3560321704
C     -0.6938753564     3.9973879799     -1.2734381949
C     -0.3835177241     3.8636477011     1.5909760312
C     1.6801108132     3.4361200779     -1.1659339764
C     2.5500210111     3.376157763     -0.0226920702
C     1.8563775042     3.9794576158     1.1095351394
C     0.5394762396     4.2511303703     -0.752976637
C     0.6487987883     4.4761153387     0.7217709911


