60

 C     1.2012365293     4.4121531288     0.0389893865
C     -0.1491178527     4.6046433219     0.1199235631
C     -0.7504912113     4.1782053744     -1.1824118121
C     1.4938342747     3.8484486616     -1.3172469756
C     0.2491816391     3.5052588671     -1.9654592334
C     2.4772816657     2.9164426919     -1.1601520866
C     1.9122049461     3.6000574883     1.0174365744
C     2.8331169506     2.7940590363     0.2775758721
C     1.1586778057     2.9741122974     2.0403364723
C     -0.9434455684     4.0034430917     1.1845720973
C     -0.2845770911     3.1668682406     2.1135323987
C     -1.9459918946     3.5739065053     -0.8999093655
C     -2.1336903789     3.5047602448     0.5734426609
C     -2.2769993834     2.3096419056     -1.4601306182
C     0.0187836631     2.1456605793     -2.4116052867
C     -1.3244927765     1.57135062     -2.2375955954
C     2.3439811032     1.605694577     -1.7091707083
C     1.1384963713     1.1943512059     -2.371954729
C     3.0083915831     1.4365992808     0.5328637121
C     2.9197616083     0.7189798294     -0.7444004461
C     1.4210436213     1.5844145216     2.3662310291
C     2.359000891     0.7972813467     1.648584844
C     -0.8814544899     1.8882574531     2.4779302413
C     0.1757550062     0.9547217245     2.753476339
C     -2.6712439139     2.2486068835     0.8683482755
C     -2.9918716848     1.6148347021     -0.4122642357
C     -2.0778794476     1.3987189652     1.8770879727
C     -3.1447873131     0.2701011457     -0.482859117
C     -1.5180867406     0.1243338132     -2.3313332798
C     -2.5847498438     -0.4699625757     -1.5861045565
C     0.9286316448     -0.2400306077     -2.4730632858
C     -0.419624627     -0.7695382991     -2.6499370737
C     2.7072953682     -0.641349507     -0.788075763
C     1.9075353673     -1.1457757113     -1.8931998903
C     2.219969455     -0.646309301     1.6295056598
C     2.7116642617     -1.3818155993     0.4732162583
C     0.0077506099     -0.4410202814     2.723253847
C     1.1730758786     -1.2680014353     2.41473596
C     -2.2770620166     -0.0452037294     1.8064309332
C     -3.0014867688     -0.5699554476     0.6875893053
C     -1.3175018299     -0.9635004134     2.3964066897
C     -2.6224254776     -1.8603404812     -1.2190333029
C     -2.8842762414     -1.9204648852     0.2237942279
C     -0.6397516939     -2.1869851277     -2.5618401923
C     -1.7523463851     -2.7551239265     -1.7863650746
C     1.6950592125     -2.5519301436     -1.9341329963
C     0.4279837322     -3.0739987844     -2.3740499281
C     2.4969745149     -2.7729096245     0.3907616084
C     2.119747946     -3.3730368821     -0.8676094294
C     0.9846694767     -2.674055633     2.3035209425
C     1.7387325454     -3.4350137971     1.3889758471
C     -1.4542022852     -2.3666088092     2.1271849823
C     -2.2322316488     -2.8680133167     0.9813560218
C     -0.356072685     -3.2202367573     2.2452147705
C     -1.2736045467     -3.9295877355     -1.0437257382
C     0.0423078602     -4.2065298556     -1.5357934542
C     1.1130878139     -4.4275305063     -0.6360721204
C     0.8710933886     -4.4701570288     0.7461716306
C     -1.5215474729     -3.9818810463     0.362620149
C     -0.4253133648     -4.2890403543     1.2444257227


