60

 C     -0.2417846179     -3.9709382112     0.4969529999
C     -1.1703280303     -3.8007600946     -0.5067666588
C     -2.354829127     -3.1898397701     0.0680890257
C     -0.7971855458     -3.3323623622     1.7277827021
C     -2.0725147974     -2.794204323     1.4350876526
C     0.2057469887     -2.5622893787     2.2997988725
C     1.1051927087     -3.5820685993     0.3454649086
C     1.4615683007     -2.9005714549     1.5852368806
C     1.5856406464     -3.0669220371     -0.9154880478
C     -0.8054981669     -3.0803722496     -1.7117796166
C     0.5658223349     -2.737447192     -1.9379487167
C     -2.8230699251     -2.2411203585     -0.8543983123
C     -1.8594464318     -2.1356402296     -1.9674242012
C     -3.4303393042     -1.0987559388     -0.3604143527
C     -2.3931817709     -1.4770885814     1.8835782201
C     -3.3388844642     -0.7787690666     1.0517849879
C     -0.0398155901     -1.2203006401     2.7536781417
C     -1.3804055154     -0.6736816894     2.5866503522
C     1.1291738315     -0.3212181975     2.8086638242
C     2.5255360711     -2.0495674827     1.6102302656
C     2.3817897671     -0.7295294796     2.2398997233
C     2.7665798169     -2.2654571092     -0.8408770483
C     3.3014008063     -1.8992349157     0.422253662
C     2.9777535522     -1.1093110517     -1.7197744952
C     0.7751743334     -1.5701856497     -2.7316133272
C     1.9982156947     -0.7796708085     -2.6307717086
C     -1.6161905407     -0.8710895451     -2.5664396279
C     -0.2918991383     -0.6705982529     -3.0490535941
C     -3.3922546381     0.1524631237     -1.1217370457
C     -2.4237880919     0.3069928856     -2.1663446233
C     -3.4821906487     0.6170162849     1.1389761783
C     -3.6199200006     1.1925415518     -0.2000580857
C     -1.5494228116     0.7976190591     2.6387550516
C     -2.6325161695     1.4248230648     1.9040422877
C     0.9230354186     1.07188752     2.8881904746
C     -0.4223281469     1.624548509     2.8844660505
C     1.7945495392     2.013774722     2.2269326898
C     3.198629103     0.186797899     1.4968413334
C     3.7355314901     -0.5336176939     0.3763350706
C     3.6054351648     -0.0330804944     -0.9379739972
C     2.8226217956     1.5627969004     1.347931197
C     3.1958267683     1.300726739     -1.1026537919
C     2.9023916948     2.1487597011     0.0380573318
C     1.6694204166     0.6169772003     -2.8941050718
C     0.261984611     0.6730671678     -3.1795927863
C     2.2785862911     1.6445941594     -2.1670564164
C     -1.8400724579     1.6134240833     -2.291883232
C     -0.4858609693     1.7757874453     -2.7929276669
C     -2.9055049612     2.4035587014     -0.2237143269
C     -2.4092709263     2.6585125498     1.1280845693
C     -2.0750563422     2.6610210058     -1.3296784605
C     -0.3398031445     2.9451652339     2.3313199088
C     0.9882294348     3.1309135368     1.8648298554
C     -1.2369105835     3.3621077406     1.2999605092
C     1.916935578     3.1295688424     -0.3830361902
C     1.4927895137     2.7795939342     -1.731567906
C     0.1470451043     2.8735536908     -2.0806987309
C     -0.8309680763     3.3951988634     -1.1399285973
C     0.9748847948     3.6341191186     0.519115718
C     -0.4262506368     3.7777814235     0.1367158914


