60

 C     5.2631570027     0.2587003398     -0.4079528958
C     5.0372874629     -0.1189292016     0.9342738636
C     4.3025140144     -1.3685084891     0.9594852639
C     4.6178990288     -0.7334911759     -1.229788271
C     3.9756076299     -1.7470360701     -0.3787340651
C     3.8056729155     -0.087817158     -2.1929897798
C     4.4981018331     1.4831109955     -0.6332748536
C     3.7606234906     1.3646651812     -1.8228332287
C     4.1362607909     0.8118233537     1.5461331829
C     3.7688689219     1.826421527     0.5820426249
C     3.2630832249     -1.2970075016     1.9598907989
C     3.107676291     0.1117772189     2.3009822395
C     2.1191754992     -2.0360499272     1.7570139873
C     2.6367888973     -2.2141336386     -0.6674941386
C     1.8284729477     -2.5971294392     0.4446450687
C     2.4926422503     -0.4932376294     -2.4459377381
C     1.8868283865     -1.6469506142     -1.8007283959
C     2.4218935372     1.7666451175     -1.8750324914
C     1.6604633721     0.7182533574     -2.5400093712
C     2.4096659569     2.2388025384     0.5289050753
C     1.7423738517     2.3738687922     -0.7645182065
C     1.8253036133     0.6595256062     2.4267426816
C     1.5338537697     1.870717846     1.6526400983
C     0.8662350462     -1.5889489244     2.3036735294
C     0.6864525008     -0.2481898689     2.6663409614
C     0.4119023947     -2.7082729725     0.3460719895
C     -0.2063328449     -2.2479028335     1.5718049322
C     0.4620358611     -1.7327191653     -1.8583076883
C     -0.3023353301     -2.4483851954     -0.8468237983
C     0.2968055675     0.6644652819     -2.5162212751
C     -0.2968055675     -0.6644652819     -2.5162212751
C     0.3023353301     2.4483851954     -0.8468237983
C     -0.4620358611     1.7327191653     -1.8583076883
C     0.2063328449     2.2479028335     1.5718049322
C     -0.4119023947     2.7082729725     0.3460719895
C     -0.6864525008     0.2481898689     2.6663409614
C     -0.8662350462     1.5889489244     2.3036735294
C     -1.5338537697     -1.870717846     1.6526400983
C     -1.8253036133     -0.6595256062     2.4267426816
C     -1.7423738517     -2.3738687922     -0.7645182065
C     -2.4096659569     -2.2388025384     0.5289050753
C     -1.6604633721     -0.7182533574     -2.5400093712
C     -2.4218935372     -1.7666451175     -1.8750324914
C     -1.8868283865     1.6469506142     -1.8007283959
C     -2.4926422503     0.4932376294     -2.4459377381
C     -1.8284729477     2.5971294392     0.4446450687
C     -2.1191754992     2.0360499272     1.7570139873
C     -2.6367888973     2.2141336386     -0.6674941386
C     -3.107676291     -0.1117772189     2.3009822395
C     -3.2630832249     1.2970075016     1.9598907989
C     -3.7688689219     -1.826421527     0.5820426249
C     -4.1362607909     -0.8118233537     1.5461331829
C     -3.7606234906     -1.3646651812     -1.8228332287
C     -3.8056729155     0.087817158     -2.1929897798
C     -4.4981018331     -1.4831109955     -0.6332748536
C     -3.9756076299     1.7470360701     -0.3787340651
C     -4.3025140144     1.3685084891     0.9594852639
C     -5.0372874629     0.1189292016     0.9342738636
C     -4.6178990288     0.7334911759     -1.229788271
C     -5.2631570027     -0.2587003398     -0.4079528958


