60

 C     -0.2423606248     -4.5993763659     0.
C     1.1506110629     -4.3296874872     0.
C     1.4323631158     -3.6584226046     1.2436452918
C     -0.8742238751     -4.0872153834     1.1751038167
C     0.1436401601     -3.4003106428     1.929568011
C     -2.0560376866     -3.4103706877     0.751340177
C     -0.8742238751     -4.0872153834     -1.1751038167
C     -2.0560376866     -3.4103706877     -0.751340177
C     1.4323631158     -3.6584226046     -1.2436452918
C     0.1436401601     -3.4003106428     -1.929568011
C     2.3986774074     -2.6637085308     -1.2500083047
C     2.3986774074     -2.6637085308     1.2500083047
C     3.0128653434     -2.3285232778     0.
C     2.1955663671     -1.39202809     1.9512290706
C     -0.1202170666     -2.1031933677     2.4585917999
C     0.9490059895     -1.0657904267     2.511808918
C     -2.3992075375     -2.2396457705     1.3962472138
C     -1.4697173023     -1.6263419112     2.3267471356
C     -3.0830902741     -1.1479747939     0.7044555257
C     -2.3992075375     -2.2396457705     -1.3962472138
C     -3.0830902741     -1.1479747939     -0.7044555257
C     -0.1202170666     -2.1031933677     -2.4585917999
C     -1.4697173023     -1.6263419112     -2.3267471356
C     2.1955663671     -1.39202809     -1.9512290706
C     0.9490059895     -1.0657904267     -2.511808918
C     3.3550104042     -0.9429965489     0.
C     2.9247183828     -0.3621224284     1.2185019226
C     2.9247183828     -0.3621224284     -1.2185019226
C     2.5519150418     0.9848024704     1.2433966402
C     0.6096849875     0.3619324981     2.6509164274
C     1.5365066615     1.3857758574     2.2100517639
C     -1.7599467799     -0.2375922159     2.3647655568
C     -2.801545808     0.0629660279     1.3899118553
C     -0.7933523874     0.7436211225     2.7004350878
C     -2.8168958815     1.3297872146     0.7368673154
C     -2.801545808     0.0629660279     -1.3899118553
C     -1.7599467799     -0.2375922159     -2.3647655568
C     -2.8168958815     1.3297872146     -0.7368673154
C     0.6096849875     0.3619324981     -2.6509164274
C     -0.7933523874     0.7436211225     -2.7004350878
C     2.5519150418     0.9848024704     -1.2433966402
C     2.6592933523     1.7411576621     0.
C     1.5365066615     1.3857758574     -2.2100517639
C     2.2420110648     3.0983511492     0.
C     1.1328687487     2.7575906262     2.1797012016
C     1.6421555008     3.6524879918     1.1748365776
C     -1.1793179918     2.092076098     2.4394243114
C     -2.1868925509     2.3973303964     1.4047837721
C     -0.229337254     3.1169922834     2.4224265288
C     0.5394461876     4.4825109434     0.7191945
C     -1.7578811226     3.5922270135     0.7201061132
C     -0.6176003332     4.1151538443     1.4209618067
C     -2.1868925509     2.3973303964     -1.4047837721
C     -1.1793179918     2.092076098     -2.4394243114
C     -1.7578811226     3.5922270135     -0.7201061132
C     1.1328687487     2.7575906262     -2.1797012016
C     1.6421555008     3.6524879918     -1.1748365776
C     0.5394461876     4.4825109434     -0.7191945
C     -0.229337254     3.1169922834     -2.4224265288
C     -0.6176003332     4.1151538443     -1.4209618067


