60

 C     1.0932149951     -4.4867453062     1.0128013903
C     -0.3342882771     -4.4747325724     1.1453474587
C     -0.8636297375     -4.6001607942     -0.1777939897
C     1.4006702607     -4.2838764333     -0.4044482455
C     0.2558044276     -4.4224726053     -1.1757961812
C     2.2180573148     -3.1017128215     -0.5420245171
C     1.6217443679     -3.3790000005     1.6962120131
C     2.4283173653     -2.5839918744     0.7947232935
C     -0.7077211137     -3.3191231049     1.9266195651
C     0.5539411719     -2.6665521332     2.3271990468
C     -1.7906846765     -2.4674278973     1.52860702
C     -1.9094487289     -3.8045239071     -0.5780207263
C     -2.4478377776     -2.7770072855     0.2627408866
C     -0.1455006724     -3.3678092973     -2.0779340757
C     -1.5385839104     -3.1556050633     -1.8586254596
C     1.9530300732     -2.1614969542     -1.5856303159
C     0.694469002     -2.206731495     -2.3303803356
C     2.5526675344     -0.8975715535     -1.3953522946
C     2.5948030141     -1.202696377     1.0332380526
C     2.9632463673     -0.4488387842     -0.1013034565
C     0.6338610022     -1.2718561411     2.5248142777
C     1.7921477429     -0.5165069278     2.0464730759
C     -1.7942810219     -1.084810028     1.980048145
C     -0.6179116604     -0.5601940237     2.6556183069
C     -2.6292159416     -0.099366491     1.2983776729
C     -2.7458010684     -1.6739382995     -0.5950386739
C     -2.0845339135     -1.8862475921     -1.8876113186
C     -2.9438762338     -0.3782339536     -0.1021707318
C     0.0665521375     -0.9288886304     -2.6696538557
C     -1.3629066697     -0.7961226803     -2.4673314318
C     2.129281972     0.2747499307     -2.1107414166
C     0.8427477334     0.3272106619     -2.6809192503
C     2.9774650304     0.9867405883     -0.0817405045
C     2.6742817721     1.4299681474     -1.4230267429
C     1.782672742     0.9308001429     2.0712798906
C     2.5133826517     1.7129293313     1.0415106591
C     -0.5211373172     0.819080908     2.9254299646
C     0.6870390709     1.5681347056     2.7002476419
C     -2.5766488876     1.2634749367     1.6703926371
C     -1.6037956585     1.6862398071     2.6200719551
C     -2.6691694756     2.3549865296     0.7084034775
C     -2.7965726244     0.6727347978     -1.0398162836
C     -1.9110335476     0.4764616886     -2.1930215217
C     -2.7144757728     2.0392480068     -0.6485476266
C     0.1821407886     1.6561543236     -2.6965726368
C     -1.2295386147     1.6925934349     -2.42472692
C     -1.8315149084     2.7277519912     -1.5886719278
C     2.1877400273     2.6958397249     -1.6359089117
C     0.9014994041     2.8348647367     -2.3349086058
C     2.1700737904     3.0880322632     0.7966032247
C     2.1904983239     3.5984286375     -0.5243638072
C     0.287078803     2.9579928814     2.392059798
C     -1.1473008483     3.0117230189     2.3534357524
C     -1.8084387335     3.4664288769     1.1612118356
C     1.015536039     3.7264695532     1.4943831948
C     -1.111757568     3.8369213212     -1.1986971421
C     0.2294575898     3.9619648314     -1.7283413154
C     1.0354114516     4.4543099501     -0.6773450967
C     -1.0885826217     4.224899488     0.2335793148
C     0.2973540146     4.5271059122     0.5350359676


