60

 C     0.1070412603     4.4571269435     1.0973352891
C     1.4140619406     3.8388082601     1.1923150025
C     1.992614855     3.7295557437     -0.0915356509
C     -0.2546164463     4.399079702     -0.3131127383
C     0.8757212325     3.9734469298     -1.0328960123
C     -1.4220268983     3.5934245276     -0.4785388357
C     -0.771210359     3.5698578367     1.7378291204
C     -1.8324854824     3.1717076124     0.8622930025
C     1.3607635182     2.6543703711     2.0102478442
C     -0.0517398018     2.4826879031     2.385003463
C     2.1353575318     1.5210031608     1.6917992268
C     2.6545387199     2.5615800213     -0.4854052793
C     2.89061706     1.493779288     0.4386467583
C     0.8666906372     2.916320656     -1.9997240213
C     2.091917273     2.1793738274     -1.7898551063
C     -1.5240767035     2.6277665796     -1.5500420702
C     -0.3298335486     2.1938221323     -2.293222448
C     -2.5359884888     1.6825454988     -1.3953737215
C     -2.5048986639     1.9635326347     1.0722262165
C     -3.196203278     1.4748000753     -0.085136507
C     -0.6329904098     1.2164104774     2.5272037818
C     -1.9868663004     0.9703082588     2.0079408572
C     1.6966066586     0.2492266939     2.2825760434
C     0.2925615635     0.0948743314     2.7065224041
C     2.4344158119     -0.900461645     1.987495124
C     3.2533200288     0.2005108046     -0.1148096763
C     3.2729924656     -0.9336605253     0.7641555283
C     2.1923970292     0.8896866782     -2.2254999744
C     2.9813858601     -0.0702190584     -1.4861161817
C     -0.2345406251     0.7822449663     -2.7227132311
C     1.0545270597     0.2016030176     -2.7670038513
C     -2.5785654447     0.4197898745     -2.1043234568
C     -1.3678946773     -0.1419045427     -2.6047113495
C     -3.7880719871     0.2365759203     -0.0900632579
C     -3.513920956     -0.3885001918     -1.4023416342
C     -2.4802124962     -0.3896249695     1.9202743104
C     -3.4835001653     -0.7334021896     0.9211532829
C     -0.2488764177     -1.1955563733     2.7834735738
C     -1.6192846296     -1.448022592     2.3529154516
C     1.8964665699     -2.2245794504     2.1778921655
C     0.5448912167     -2.3708807508     2.5104818578
C     3.2658252815     -2.2339632546     0.2578663294
C     2.4484151689     -3.0690079868     1.150100601
C     2.5690347678     -1.3788846111     -1.9107017193
C     1.2969423887     -1.2251519854     -2.5974258205
C     2.8142039689     -2.4853501357     -1.0904439598
C     -1.1399394688     -1.5939943899     -2.4178322161
C     0.2315127623     -2.1218359037     -2.3827499329
C     -3.2956730431     -1.725463921     -1.1982404107
C     -3.4056164718     -1.9989362779     0.2566679273
C     -2.1249243156     -2.3526143924     -1.706570558
C     -1.6250127128     -2.7411519063     1.7316740442
C     -0.298152993     -3.3127119089     1.7929365984
C     -2.4206128004     -2.9306775606     0.5693122186
C     -1.721585479     -3.3112912624     -0.6746479965
C     1.6258998733     -3.8864114768     0.3926120214
C     1.8090631546     -3.4970769807     -1.0262209455
C     0.5395138957     -3.3108108267     -1.5915748302
C     0.2277664407     -3.9791515036     0.6669016972
C     -0.4477450307     -3.7945220542     -0.6190182479


