60

 C     0.461108384     -4.8772131517     -0.0076883312
C     -0.8044788083     -4.7853363819     0.5619593693
C     -1.6499918265     -4.0931471532     -0.362113306
C     0.4279475743     -4.167794868     -1.3074017535
C     -0.905117865     -3.6906495862     -1.5469009696
C     1.4983422753     -3.2583879181     -1.38697894
C     1.3709417829     -4.1374745035     0.8072804964
C     2.173908019     -3.323874016     -0.0401952654
C     -0.7101424309     -3.8915935023     1.7346221205
C     0.6499130061     -3.5021153007     1.9191471811
C     -2.3865529131     -3.1016450013     0.3523669317
C     -1.7088243162     -2.8851184094     1.663486971
C     -2.7895675835     -2.0012391371     -0.3429715949
C     -1.0963072576     -2.3824346626     -2.1004013331
C     -2.2529902704     -1.6660773216     -1.6599044434
C     1.3623642446     -1.9872329095     -2.0099183274
C     0.0443058483     -1.5457313042     -2.463796729
C     2.3638318975     -0.9572402096     -1.6638820014
C     2.6699096181     -2.1676789146     0.4834653154
C     3.0073591354     -1.051913023     -0.374066922
C     0.9557293558     -2.151297822     2.2791633276
C     2.1853339811     -1.6336726596     1.7479984873
C     -1.4581203361     -1.551577812     2.0930674641
C     -0.1123547566     -1.1714734377     2.5042508054
C     -3.0111222276     -0.7646810645     0.3576393403
C     -2.3311825041     -0.4888026263     1.5695807156
C     -2.3987899148     -0.2659501149     -1.8200994194
C     -3.1059761292     0.2458613094     -0.644972002
C     -0.1646758733     -0.1251232483     -2.7562580167
C     -1.4243316895     0.5540800256     -2.44266898
C     2.2273525536     0.3162682129     -2.2005770448
C     0.9875851136     0.7068459824     -2.8546673826
C     2.7238287612     1.503125237     -1.5091422053
C     3.098456846     0.0920367769     0.4332001322
C     2.4454216048     -0.2614415452     1.7144572212
C     3.0233016001     1.4053671955     -0.1051097122
C     0.213370916     0.2484981338     2.6133416932
C     1.5775655196     0.674684635     2.3125387697
C     -2.0965909491     0.9013314094     1.9050412091
C     -0.8364984128     1.2733412829     2.5661697566
C     -3.0407595281     1.5507218889     -0.283835457
C     -2.7411893969     1.8841549528     1.0913735572
C     -1.4765827025     2.0114842615     -2.1697768699
C     -2.3817450094     2.5133983494     -1.1603227818
C     0.8872879178     2.1100684437     -2.7555266375
C     1.9993617474     2.621331264     -1.9743380262
C     -0.2928233213     2.7884803802     -2.3587453833
C     1.5270839624     3.6438346133     -1.1142567066
C     0.1047816708     3.866206845     -1.4387784512
C     2.5657093608     2.4330386643     0.7551616768
C     1.8631859673     2.0453794147     2.0125798962
C     1.9316061695     3.6189279247     0.2510563609
C     -0.4499360761     2.6541572454     2.5540551539
C     0.9245870786     3.0110471586     2.3083342174
C     0.9825145342     4.0418892925     1.2548392612
C     -2.2700441411     3.2271668098     1.0470042015
C     -2.0521775096     3.624901795     -0.3624551062
C     -0.7856090784     4.2769332888     -0.4390240465
C     -1.218130949     3.6408981161     1.8252408399
C     -0.3013827692     4.4024566953     0.9383516739


