60

 C     -2.0289386057     -3.85269049     0.08714946
C     -0.8224722592     -4.1203565197     0.7305319669
C     0.2201928027     -4.161994146     -0.2883627903
C     -1.6978895106     -3.4305597012     -1.3123966889
C     -0.3088820846     -3.5325345907     -1.4878005888
C     -2.3778839988     -2.2213016714     -1.5765202552
C     -2.8821496614     -2.9053524417     0.6180295044
C     -3.2767833043     -1.9803623458     -0.473948645
C     -2.4906311172     -2.0955142963     1.7221773963
C     -0.3447609799     -3.2735816881     1.7882586751
C     -1.143121125     -2.1814538891     2.2559812723
C     1.3951067124     -3.6871607238     0.26138426
C     1.0772164581     -3.0700967271     1.5610810591
C     2.3039504969     -3.0351994774     -0.6001880703
C     0.4206143494     -2.4227821284     -2.1009857595
C     1.7959950973     -2.33314256     -1.7868638931
C     -1.6997224196     -1.0887077323     -2.1569627249
C     -0.2786062566     -1.1899256387     -2.4569475164
C     -2.281507728     0.215955628     -1.8976047253
C     -3.4610198177     -0.7137699574     0.0412333047
C     -3.0596714601     -0.7882537555     1.4537801696
C     -3.1090429321     0.4420179547     -0.7277868033
C     -2.5212226712     0.3233977575     2.020254183
C     -0.4529897345     -0.9248716052     2.6384134852
C     -1.2325261377     0.2622765142     2.6762960568
C     1.7666518719     -1.9051665597     1.9581138398
C     0.9933817508     -0.7621086958     2.4922043655
C     3.2791384485     -2.2462283592     -0.0164120859
C     3.0291304176     -1.6584473195     1.2754826651
C     2.5723648858     -1.1111254012     -1.9374151723
C     3.6005961274     -1.1542683781     -0.9421729265
C     0.5144288503     0.0471305082     -2.6304184812
C     1.9380495247     0.1155609041     -2.2576666931
C     -1.5939174176     1.3383002455     -2.4369979799
C     -0.1741704499     1.2567154424     -2.7423940046
C     -1.8746061093     2.6359697015     -2.0083569362
C     -2.9943035646     1.7061966892     -0.0160608223
C     -2.6629331478     1.6214428517     1.3810554021
C     -2.5031254788     2.8516330756     -0.7294874224
C     -0.6861349626     1.5847480743     2.5941623076
C     -1.658533243     2.4629296645     1.9331034956
C     1.5471665266     0.5854576438     2.386911054
C     0.7032769869     1.7722575727     2.430718347
C     3.5307075823     -0.336402835     1.2122712747
C     3.885723661     -0.0299358125     -0.2055602472
C     2.8162433348     0.7443717592     1.7027259369
C     2.4378947348     1.3590941726     -1.6437544948
C     3.3509756489     1.2188725586     -0.5510333818
C     2.9694141602     1.8362747131     0.7187041989
C     0.4187631616     2.5610013968     -2.4203008267
C     -0.6570783868     3.4365447157     -2.0902336421
C     1.6318543203     2.5821286099     -1.6710326956
C     -1.7530654115     3.8592973236     -0.0667490358
C     -1.2363199248     3.6130720094     1.2336409939
C     -0.6077438484     4.2360285419     -0.9391289031
C     1.1039420873     3.0003402402     1.7366639164
C     2.1624809444     2.9110106376     0.7323529625
C     1.6758682933     3.4749551012     -0.5258611189
C     0.1744430146     3.8988576379     1.2227850911
C     0.5561818984     4.2594562012     -0.1680615135


