60

 C     0.2713636141     -4.6697236883     0.
C     1.5710168801     -4.2630004667     0.
C     1.8865928598     -3.4775030188     1.1977595648
C     -0.3607364707     -4.1100050526     1.2003122135
C     0.6609795035     -3.3149261428     1.938883525
C     -1.466331692     -3.4062680167     0.75286219
C     -0.3607364707     -4.1100050526     -1.2003122135
C     -1.466331692     -3.4062680167     -0.75286219
C     1.8865928598     -3.4775030188     -1.1977595648
C     0.6609795035     -3.3149261428     -1.938883525
C     2.5480471854     -2.3357409775     0.7488659766
C     2.5480471854     -2.3357409775     -0.7488659766
C     2.393002587     -1.0969368146     1.4170733416
C     0.3420747348     -2.0504151869     2.4711330935
C     1.3359921864     -0.9700654444     2.3893575804
C     -1.9441650965     -2.2494243318     1.4468240489
C     -1.0751721187     -1.6282202383     2.454931074
C     -2.8379866144     -1.430061656     0.7366398134
C     -1.9441650965     -2.2494243318     -1.4468240489
C     -2.8379866144     -1.430061656     -0.7366398134
C     0.3420747348     -2.0504151869     -2.4711330935
C     -1.0751721187     -1.6282202383     -2.454931074
C     2.393002587     -1.0969368146     -1.4170733416
C     1.3359921864     -0.9700654444     -2.3893575804
C     2.9236092963     0.069738538     0.7379877985
C     2.9236092963     0.069738538     -0.7379877985
C     2.804149117     1.3023337754     1.41145638
C     0.9852447762     0.3699269333     2.8391159209
C     1.7737877921     1.4659813387     2.4142444119
C     -1.4110863095     -0.3450346243     2.8868710235
C     -0.3819032069     0.6457543942     3.2009034862
C     -3.1477131356     -0.1003144816     1.1626987944
C     -2.5249503382     0.3887726764     2.3091313739
C     -3.1477131356     -0.1003144816     -1.1626987944
C     -3.3048031315     0.7593192239     0.
C     -1.4110863095     -0.3450346243     -2.8868710235
C     -2.5249503382     0.3887726764     -2.3091313739
C     0.9852447762     0.3699269333     -2.8391159209
C     -0.3819032069     0.6457543942     -3.2009034862
C     2.804149117     1.3023337754     -1.41145638
C     1.7737877921     1.4659813387     -2.4142444119
C     2.889026473     2.5319854066     0.6864863701
C     2.889026473     2.5319854066     -0.6864863701
C     1.1770925498     2.8112485311     2.2116968917
C     1.8219545998     3.4369419585     1.1450003038
C     -0.9311721795     1.9360003664     3.0220472321
C     -2.2122852845     1.7782683496     2.3711902657
C     -0.220715296     2.9639838647     2.3555400944
C     -2.8074386795     2.0986989659     0.
C     -2.2430545376     2.6016595529     1.2300510589
C     -1.0072593968     3.4049253561     1.224505242
C     -2.2122852845     1.7782683496     -2.3711902657
C     -0.9311721795     1.9360003664     -3.0220472321
C     -2.2430545376     2.6016595529     -1.2300510589
C     1.1770925498     2.8112485311     -2.2116968917
C     1.8219545998     3.4369419585     -1.1450003038
C     1.0876226533     3.8970073828     0.
C     -0.3718054097     3.792488073     0.
C     -0.220715296     2.9639838647     -2.3555400944
C     -1.0072593968     3.4049253561     -1.224505242


