60

 C     1.3791410112     -4.5974203852     0.1737380022
C     0.0299178446     -4.8036210774     0.0069789573
C     -0.4241080009     -4.2546393317     -1.2655315214
C     1.8210748543     -3.8101542538     -0.9613801077
C     0.6882528525     -3.5638038377     -1.863961928
C     2.4900050002     -2.6832522128     -0.4724796184
C     1.537061361     -3.7398161482     1.3638663495
C     2.3460005641     -2.6532335265     1.019325438
C     -0.7101789333     -4.135623563     1.0780603693
C     0.252134182     -3.4507658128     1.941124219
C     -1.6163407582     -3.5350280403     -0.9876755198
C     -1.7675532046     -3.4210847303     0.5026280375
C     -1.8834466484     -2.4049285857     -1.7228847656
C     0.5019295677     -2.2513341954     -2.4272532519
C     -0.8504761801     -1.8078992984     -2.5419694228
C     2.476376388     -1.4439282765     -1.1736005251
C     1.4995355359     -1.1882538502     -2.220079142
C     2.9695990894     -0.3501489245     -0.4304033436
C     2.1727760846     -1.4028541403     1.6629753398
C     2.7950258818     -0.3105648807     0.9944863867
C     -0.0540204731     -2.1378365268     2.3930514258
C     0.9979009471     -1.1247524225     2.4448285069
C     -2.202201299     -2.1914756098     1.0733039527
C     -1.4180047812     -1.6542648354     2.1811498822
C     -2.6886941044     -1.3268670407     -1.1863192187
C     -2.9327634237     -1.2411575037     0.2225983372
C     -1.1789693424     -0.4331874268     -2.68584004
C     -2.3896043246     -0.1489184999     -1.9122777777
C     1.193768897     0.199106057     -2.5210961871
C     -0.1930271642     0.5531388921     -2.8448608997
C     2.8878476021     0.9900851503     -0.9043438433
C     2.0503235724     1.29013868     -2.0181433523
C     2.642378884     1.0477442301     1.3872853532
C     2.9581643366     1.8750699512     0.2424057425
C     0.682809145     0.2854804134     2.7282336131
C     1.5827162236     1.3877021721     2.2829358772
C     -1.7072335683     -0.3459166504     2.6114962965
C     -0.6548983317     0.612392192     2.9674462187
C     -3.2344312758     0.0447047486     0.7388066951
C     -2.7579840477     0.3892361493     2.0260302683
C     -2.6318747041     1.1592208276     -1.3860777717
C     -3.1245915925     1.2568648887     -0.0601553902
C     -0.6361743241     1.9126258835     -2.6942056139
C     -1.8330147335     2.2228348625     -1.8814971376
C     1.6088295969     2.6684301488     -2.1137843679
C     0.2610660184     2.9570591542     -2.5513741571
C     2.4467769477     3.1640437549     0.1445383163
C     1.9259991778     3.6182409739     -1.0984095411
C     1.077783779     2.7280621698     2.1864946477
C     1.5756003817     3.621597837     1.2057147638
C     -1.1799900155     1.9602995874     2.7009094795
C     -2.4373746956     1.7947651683     2.0546877363
C     -2.6787770145     2.3661257848     0.7844178268
C     -0.3578137013     2.982161767     2.2814040214
C     -1.5587414335     3.4137319807     -1.1292052645
C     -0.3220603072     3.9415798131     -1.6449489135
C     0.684452308     4.364018455     -0.7844450007
C     0.4687161094     4.3399972775     0.614874323
C     -1.826471116     3.4147291578     0.2946952095
C     -0.7531448446     3.8515435584     1.1737119301


