60

 C     0.252903106     -3.0491854962     2.501436622
C     1.418171487     -2.2501712234     2.6582795046
C     2.1314139609     -2.2644957003     1.3865704071
C     0.3012711297     -3.6508014669     1.2053336181
C     1.4790459664     -3.2393281847     0.519138437
C     -0.9767274429     -3.5107699244     0.5805334478
C     -1.0431184548     -2.4566592627     2.6776702403
C     -1.767646626     -2.6011596376     1.423263988
C     -1.1458722374     -1.2825171832     3.4082271736
C     1.3252818173     -1.0654928898     3.3863611407
C     0.0593617951     -0.712961363     3.9383173214
C     1.9426343113     0.1727092227     2.8947638197
C     2.6357660612     -1.0549731454     0.8510671758
C     2.5036864798     0.2238121264     1.6008146716
C     2.7552301141     -1.0005598627     -0.5762406365
C     1.435871807     -3.0789271464     -0.8934012951
C     2.2260610866     -2.0223553953     -1.4402147259
C     -1.0319125552     -3.4337934027     -0.7879178567
C     0.2024215324     -3.4086134983     -1.572717467
C     -1.9962494895     -2.5459223532     -1.413460718
C     -2.4402742296     -1.5034721862     0.8429752512
C     -2.5900567343     -1.4981507152     -0.6313522324
C     -1.9426343113     -0.1727092227     2.8947638197
C     -2.5036864798     -0.2238121264     1.6008146716
C     -0.0593617951     0.712961363     3.9383173214
C     1.1458722374     1.2825171832     3.4082271736
C     -1.3252818173     1.0654928898     3.3863611407
C     1.0431184548     2.4566592627     2.6776702403
C     2.4402742296     1.5034721862     0.8429752512
C     1.767646626     2.6011596376     1.423263988
C     2.789329714     0.2516223557     -1.2957125591
C     2.5900567343     1.4981507152     -0.6313522324
C     1.8817852577     -1.3845317772     -2.6959903092
C     2.293007155     -0.0005961074     -2.6284011174
C     -0.1200777381     -2.7427435924     -2.7702397229
C     -1.4906368172     -2.2658976716     -2.7107934377
C     0.6920675831     -1.7256278214     -3.3545954139
C     -1.5489554294     -0.9848880386     -3.2915922237
C     -0.2100142956     -0.6546270086     -3.8121230035
C     -2.789329714     -0.2516223557     -1.2957125591
C     -2.293007155     0.0005961074     -2.6284011174
C     -2.6357660612     1.0549731454     0.8510671758
C     -2.7552301141     1.0005598627     -0.5762406365
C     -1.418171487     2.2501712234     2.6582795046
C     -0.252903106     3.0491854962     2.501436622
C     -2.1314139609     2.2644957003     1.3865704071
C     0.9767274429     3.5107699244     0.5805334478
C     -0.3012711297     3.6508014669     1.2053336181
C     -1.4790459664     3.2393281847     0.519138437
C     1.9962494895     2.5459223532     -1.413460718
C     1.0319125552     3.4337934027     -0.7879178567
C     1.5489554294     0.9848880386     -3.2915922237
C     0.2100142956     0.6546270086     -3.8121230035
C     1.4906368172     2.2658976716     -2.7107934377
C     -1.8817852577     1.3845317772     -2.6959903092
C     -2.2260610866     2.0223553953     -1.4402147259
C     -1.435871807     3.0789271464     -0.8934012951
C     -0.2024215324     3.4086134983     -1.572717467
C     -0.6920675831     1.7256278214     -3.3545954139
C     0.1200777381     2.7427435924     -2.7702397229


