60

 C     4.7245764718     0.1650350732     0.1848396825
C     4.1691663256     -1.0833365933     0.3862326682
C     3.3304167059     -1.1007649396     1.5956853554
C     4.1230116981     1.0411938612     1.1859045031
C     3.2310108335     0.2543302729     2.0463667694
C     3.5670671641     2.1167913305     0.5336023483
C     4.2700689226     0.6299686815     -1.1371444878
C     3.6836888647     1.8816425034     -0.9475110595
C     3.5490281399     -1.5465985798     -0.8503050485
C     3.487451331     -0.4092831707     -1.7711512688
C     2.4901765839     -2.407201903     -0.7665116895
C     2.2206397779     -1.9929484813     1.6774630313
C     1.895277418     -2.8040854114     0.5245057493
C     1.1299625492     -1.5752438639     2.4713460715
C     1.9594447474     0.7729957227     2.4640367255
C     1.0045935132     -0.1986494192     2.8571850875
C     2.2354616081     2.5696873112     0.8012803974
C     1.4255244323     2.0063811674     1.848923374
C     2.439035792     2.1881673725     -1.5084302432
C     1.6238604926     2.8252998251     -0.4651368339
C     2.2470569542     -0.1207806438     -2.4243802944
C     1.7691941417     1.2595060031     -2.3765413229
C     1.4215237845     -2.3448168031     -1.7246112205
C     1.2141531141     -1.1787214822     -2.5062362472
C     0.5814218942     -3.2369371634     0.2841533338
C     0.3223498714     -3.0799867055     -1.1580957356
C     -0.2058218992     -2.1071391623     2.2928646096
C     -0.5042997676     -2.9732820183     1.2128532622
C     -0.3937801315     0.1007134243     2.9493079467
C     -1.1530263518     -1.1095174242     2.7177848029
C     0.0046077219     2.2401664431     1.7985506764
C     -0.9049044304     1.3612218339     2.5503071129
C     0.2396776546     2.9558916571     -0.5846367828
C     -0.5666361233     2.9120348851     0.62748312
C     0.3911055161     1.5184609127     -2.5761406802
C     -0.3200414948     2.5122059724     -1.8184142397
C     -0.1841536258     -0.8609074777     -2.8461646585
C     -0.5643662311     0.5052202818     -2.9401814167
C     -0.9538431054     -2.8976797255     -1.6149896416
C     -1.2350943147     -1.7704200109     -2.4928894954
C     -1.848989883     -2.9383015923     0.6955651973
C     -2.0690597498     -3.0939800589     -0.7249086597
C     -2.4823341689     -1.0745390675     2.2230731078
C     -2.847192749     -2.050000961     1.2283514883
C     -2.3091244914     1.4138114392     2.3346925856
C     -3.1159832492     0.2119011702     2.1999124717
C     -1.9673996767     2.9298203856     0.4419787267
C     -2.8576802979     2.3803757672     1.4244827978
C     -1.7192112345     2.2406651404     -1.9125986888
C     -1.8930892263     0.965544044     -2.5813643092
C     -2.5515497312     2.6159397322     -0.8668227539
C     -2.5537470482     -1.3175471506     -2.1417328193
C     -3.0644396788     -2.1806332379     -1.0955117609
C     -3.6468841416     -1.6067044418     0.0927304486
C     -2.9082586058     0.0741050927     -2.1393578848
C     -4.1326555031     0.5071961746     1.2169070333
C     -4.0311194765     1.859623404     0.81756708
C     -3.7382032817     1.8346775013     -0.6072582115
C     -4.1674618339     -0.3243964305     0.0336249593
C     -3.8602026218     0.5338294333     -1.1405350696


