60

 C     0.0878646017     4.19296283     -0.0470062129
C     1.2244188192     3.8022415793     0.5884630159
C     0.8790979814     3.2375048762     1.9164024181
C     -1.0385099212     3.9235208225     0.9062327413
C     -0.5266412095     3.1559291119     2.0433342906
C     -2.0611030084     3.4337521106     0.1608888692
C     -0.2500445248     3.6281876802     -1.346237834
C     -1.6248765645     3.3011773628     -1.2545325711
C     0.645706709     2.7090469023     -2.0000349276
C     2.1836740445     2.9395725481     -0.0313630846
C     1.9687093044     2.4809158264     -1.3744929137
C     1.7053457414     2.1414666548     2.1303533944
C     2.6072185588     2.0079847564     0.973078071
C     1.1824395362     0.9770853285     2.7651478147
C     -1.1330996238     1.9088997623     2.4248666858
C     -0.2591637145     0.8264052036     2.9074018409
C     -2.7562178005     2.2400956184     0.5336889223
C     -2.3768802287     1.5296640682     1.7319930183
C     -2.1587820111     2.108481552     -1.7377327359
C     -2.9841533332     1.5104331048     -0.6759765157
C     0.0388247077     1.6022839861     -2.757849562
C     -1.3679987765     1.2668145362     -2.5735713036
C     0.8953556142     0.5287790774     -3.1997417081
C     2.6923014351     1.3056918872     -1.7246049181
C     2.2149994996     0.4674419639     -2.7667168907
C     3.1365297179     0.7339696696     0.630545477
C     3.2722145433     0.4277948553     -0.7445649118
C     2.0105507642     -0.1871831225     2.6370847339
C     2.9186276833     -0.3353780829     1.549589897
C     1.4843633657     -1.4792730209     2.9128826642
C     -0.7936214032     -0.5479866622     3.0143944574
C     0.1226037142     -1.6917766423     3.0249187381
C     -2.8076421377     0.1888190361     1.7799431248
C     -2.0905824527     -0.8231580544     2.5411381709
C     -3.250051323     0.1239877034     -0.654567178
C     -3.3659241641     -0.4704120127     0.6325318262
C     -1.7922798665     -0.1089382386     -2.6508217223
C     -2.7342895508     -0.6679753275     -1.7388767563
C     0.4282904816     -0.8690989935     -3.3226128629
C     -0.8827939836     -1.1692308186     -3.0449689148
C     2.5717654432     -0.9233715849     -2.4848499127
C     3.1544875911     -0.9716212635     -1.2192231623
C     1.4824919409     -1.7620272005     -2.8427068952
C     2.8720273836     -1.7459596638     1.0914527485
C     2.0664885931     -2.4484340115     1.9868035209
C     2.8293791062     -2.0435608951     -0.3149863799
C     -0.1733017036     -2.9527564888     2.2862214681
C     1.0302132112     -3.3210202482     1.5499142505
C     -2.418030346     -2.1158876122     1.9780197421
C     -3.1155556999     -1.8767577573     0.7839767424
C     -1.4108457201     -3.1044663383     1.704845531
C     -2.4062585968     -2.0841202249     -1.5396673961
C     -1.236301179     -2.3834964508     -2.3201542053
C     -2.5765704386     -2.67879087     -0.2850875802
C     -1.516820493     -3.4942543049     0.2873135331
C     1.1606207524     -2.8411246921     -2.0106503085
C     1.8696552948     -3.0270588366     -0.7536094695
C     0.9522365553     -3.6473150168     0.1872472665
C     -0.2261312299     -3.1990294947     -1.7960307766
C     -0.3540313899     -3.7294464833     -0.4474352647


