60

 C     0.5391454735     -4.3512446924     0.399141342
C     0.8550992195     -3.7248107966     1.6057287035
C     2.1276712517     -3.0076377955     1.4114573883
C     1.5215650433     -3.880965099     -0.6245847894
C     2.5219359354     -3.1175864515     0.0355108011
C     0.7878763784     -3.3305052662     -1.7018851958
C     -0.7412628003     -4.228736178     -0.1302983485
C     -0.5957531781     -3.6820838023     -1.4857263664
C     -1.7349914386     -3.4481803358     0.5286339633
C     -0.0640897151     -2.8224484643     2.2166791743
C     -1.3960019304     -2.6688227017     1.7020859843
C     2.0610728226     -1.7560802507     2.0319980256
C     0.7021860803     -1.6203130405     2.5511624841
C     2.7310443433     -0.6170704765     1.4689532023
C     2.9975957163     -1.9666586534     -0.5937191618
C     3.3233570559     -0.8017883679     0.1846815767
C     1.1167199149     -2.010120818     -2.233805318
C     2.3520450226     -1.4692377086     -1.7971994604
C     0.047708846     -1.0691389843     -2.6045844917
C     -1.6055124143     -2.7654027858     -1.720328412
C     -2.4669919768     -2.7823538895     -0.5234178169
C     -1.3344636592     -1.491304672     -2.3797226342
C     -3.2343044108     -1.6889341958     -0.2368574835
C     -2.0563215857     -1.3707986421     1.9153734136
C     -3.122781653     -1.0051132667     1.0519936799
C     0.1201257221     -0.359458186     2.731576155
C     -1.3343348362     -0.2713477685     2.5773989045
C     2.2655209915     0.7086175987     1.8656486792
C     0.9892726916     0.8283960661     2.5685185645
C     2.7244573496     1.8330120493     1.1182082885
C     3.3521310162     0.3152648524     -0.7147901943
C     2.6136750345     -0.0598465476     -1.889164088
C     3.2622213359     1.6076200315     -0.2220600472
C     0.334615441     0.3659987799     -2.7174056034
C     1.6853107371     0.8538657307     -2.4682606304
C     -0.7604171759     1.3404843755     -2.5626326207
C     -2.3455956534     -0.5105180272     -2.2285876839
C     -3.3610331378     -0.6785958812     -1.2302339633
C     -2.0509977634     0.8937790956     -2.2714131944
C     -3.4886815     0.3838566654     0.8179996509
C     -3.6266903093     0.5782670687     -0.6153476778
C     -2.8796404263     1.5744560498     -1.2595409075
C     -1.8883934991     1.028970383     2.5167284335
C     -2.9186246312     1.3824905709     1.565338853
C     0.3648717876     2.1067601202     2.5959532082
C     -1.0420679375     2.1634014537     2.6174791697
C     2.0223090509     3.1015342969     1.0894210912
C     0.8343007743     3.2439370682     1.7967389983
C     2.7703910744     2.6055990603     -1.0856948275
C     1.9175817174     2.2483262585     -2.1672383147
C     2.0909580391     3.613160463     -0.2655350736
C     -0.4775335339     2.7152460365     -2.1560696389
C     0.8194925854     3.1847310676     -2.1211554011
C     0.9516019152     4.0282232206     -0.9212717425
C     -2.376689269     2.6986681299     -0.5224999798
C     -2.5065823242     2.6519592473     0.9230784431
C     -1.4834072334     3.2089089947     1.7062386455
C     -0.3387707025     3.8556771932     1.1616269503
C     -1.259628213     3.3650241795     -1.0653282942
C     -0.312296759     4.0708676381     -0.2389939129


