60

 C     -0.3655706162     4.7326405671     -0.0944103272
C     -1.433515126     4.1144932248     0.7171767033
C     -0.869282098     3.6523786513     1.9039216543
C     0.8932877742     4.395997861     0.5229117987
C     0.6056151934     3.8072570262     1.7640617071
C     1.67959663     3.6007986542     -0.4140698032
C     -0.3980845116     4.076078199     -1.3219152498
C     0.886664611     3.4517962423     -1.6164353275
C     -2.2041632954     3.2055615496     -0.0818734231
C     -1.5956875899     3.2513193692     -1.4277822462
C     -2.5991074481     1.9448345783     0.4329036753
C     -1.1118964867     2.3361190018     2.359552514
C     -2.0604912874     1.4957550721     1.7266402139
C     1.2159649411     2.6105457372     2.1965384315
C     0.1735214122     1.7310540559     2.6908608261
C     2.4750927953     2.5094697003     0.045823803
C     2.2873870292     2.0304776501     1.4348039987
C     2.7827992888     1.5062249115     -0.9207757954
C     0.9201732266     2.2498753056     -2.3757775524
C     1.9873133408     1.349288967     -2.1139573984
C     -1.5504843862     2.125487636     -2.2179612636
C     -0.3136383117     1.641835264     -2.8039598271
C     -2.9065548438     0.8999311789     -0.5536915277
C     -2.3418245544     0.9733612717     -1.8573047457
C     -3.1906571051     -0.3883688114     -0.0998797929
C     -1.994635877     0.0693192518     2.0272137908
C     -2.885080811     -0.7600794135     1.2955970153
C     0.3426312885     0.3317322979     2.7655470178
C     -0.8030397549     -0.5556807814     2.5783471436
C     2.5699105759     0.6857544968     1.7320027292
C     1.6438500082     -0.1466340854     2.4676461094
C     3.2659469776     0.2001439196     -0.5475515295
C     3.2194665609     -0.192245481     0.7864615086
C     1.9047983147     -0.0566945325     -2.4297719072
C     2.8338483068     -0.7444118183     -1.5695299635
C     -0.4371913576     0.2259716689     -2.9193685569
C     -1.7473474326     -0.18701805     -2.4445926084
C     0.6655626938     -0.676207202     -2.773590238
C     -2.9820821752     -1.5541042869     -0.911122888
C     -2.0161606438     -1.493261314     -1.9768932298
C     -2.7741251565     -2.1375469111     1.3627293599
C     -2.9560312864     -2.6671650647     -0.0150332496
C     -0.5735620151     -1.9970192128     2.4369935832
C     -1.6585107993     -2.7925989447     1.9472744206
C     1.8612656931     -1.5329122931     2.1362481904
C     2.8858068129     -1.5600000288     1.1162384191
C     0.8104701731     -2.4890988911     2.1830989136
C     2.641029993     -2.0687195132     -1.2785403137
C     2.820801665     -2.5292908102     0.1096175935
C     0.4075362015     -2.0796528522     -2.4106934655
C     -0.9710583069     -2.5341448009     -2.0849882434
C     1.5113112403     -2.8000338731     -1.8462420427
C     -2.1293826215     -3.7238662249     -0.2078855072
C     -1.4032186423     -3.9434253391     1.0814142752
C     -1.1338827577     -3.7113956611     -1.279212311
C     1.008102645     -3.6688943493     1.3551444369
C     1.9666579788     -3.6203284822     0.3117497505
C     1.273757258     -3.9008516388     -0.9718133621
C     -0.1428558247     -4.3419965749     0.7851855584
C     0.0089524936     -4.3518560674     -0.7070810457


