60

 C     1.3614849462     -4.0080552168     -0.0405435386
C     0.1840093906     -4.0492964218     -0.7264903452
C     -0.9540835362     -3.9611622699     0.2315609052
C     0.9892517049     -3.810686975     1.4010211759
C     -0.4368246682     -3.5944065695     1.5010868067
C     1.8475797188     -2.889643456     1.9039024186
C     2.3683123206     -3.0380966302     -0.3877231546
C     2.8305582336     -2.5164415396     0.8640267412
C     2.1552595633     -2.118501435     -1.4765487479
C     -0.0942032277     -3.171314658     -1.826327955
C     0.8760919301     -2.1882114374     -2.2099428998
C     -1.9819978117     -3.2515347479     -0.3912686184
C     -1.4883194589     -2.8086978777     -1.7040439372
C     -2.7247590295     -2.3538442167     0.3931306554
C     -0.9481894481     -2.4008692973     2.1560145703
C     -2.1923926459     -1.92210997     1.6607061754
C     1.3886887906     -1.6691851684     2.5425092936
C     -0.0036488571     -1.3836317922     2.6751919178
C     3.118017819     -1.1746495036     1.0199557024
C     2.2894861971     -0.6494520789     2.1184194208
C     2.8574426106     -0.8322838527     -1.4108891724
C     3.3644407689     -0.3588859769     -0.1188501021
C     2.4897892802     0.1879157893     -2.3467055292
C     0.3517122125     -0.9571464569     -2.8110167639
C     1.186001124     0.1726416722     -2.9132136506
C     -1.9583228248     -1.5958226668     -2.2024532433
C     -1.048277374     -0.6794232665     -2.7988039744
C     -3.3548555329     -1.2056718209     -0.2140764981
C     -2.9926059445     -0.8390909777     -1.5078148668
C     -2.6332067236     -0.5595742332     1.8907763179
C     -3.4752690802     -0.1661340175     0.7898266956
C     -0.3985693817     0.0294989221     2.7826556614
C     -1.8056937284     0.397932953     2.5512130244
C     1.9455568755     0.7128445978     2.1818253433
C     0.6145710366     1.0666457358     2.6514040631
C     3.3991967228     1.0362171477     0.1730701596
C     2.6875684663     1.5707186378     1.3095768521
C     2.8133810106     1.5736569153     -2.1168480698
C     3.2533987554     1.9857121469     -0.8813363475
C     0.6409026975     1.5554231779     -2.8536902542
C     1.6447365268     2.4052358515     -2.4344453486
C     -1.5789993327     0.6763415562     -2.6075403242
C     -2.7883775765     0.5630929109     -1.8402557694
C     -0.7379863124     1.8000685567     -2.4897313374
C     -3.5449630573     1.1783511329     0.4096651811
C     -3.1254087096     1.5705725041     -0.9520345746
C     -2.1586443698     1.775602772     2.3469192776
C     -3.0612051783     2.1434769124     1.2973411621
C     0.2057303689     2.4350557352     2.4180482351
C     -1.1387327749     2.7803939124     2.3635072786
C     2.1503240204     2.8824527162     0.9476161822
C     2.4425684944     3.1267015226     -0.4162929645
C     1.3899402938     3.3298844959     -1.3396478306
C     0.9295809393     3.2766136824     1.45266034
C     -1.0688950292     2.8806753038     -1.5454733872
C     -2.3199631846     2.7712041644     -0.855374488
C     -2.423376317     3.2091071861     0.5120519939
C     -1.3209184416     3.662579306     1.2006760863
C     0.0517579732     3.5757128842     -0.8703096007
C     -0.0686514353     3.8214938297     0.5433337567


