60

 C     4.7556737947     -1.123042409     -0.4566851712
C     4.6814510813     0.2864858673     -0.7761556307
C     4.6673241285     1.0217429954     0.4331031011
C     4.3312458626     -1.2325851032     0.9395457155
C     4.2955329424     0.0381223547     1.5103839658
C     3.1518509353     -2.0587033799     1.0388439539
C     3.7682378573     -1.7803990265     -1.1956187989
C     2.9485635152     -2.5694925265     -0.3064141496
C     3.5837087092     0.482752706     -1.7177949872
C     3.0284718586     -0.8184668431     -2.0083321825
C     2.6781517509     1.5845115511     -1.5987001163
C     3.8172691303     2.0978395481     0.5524534544
C     2.9129495612     2.4822003151     -0.4931162063
C     3.1176751072     0.5167272119     2.1708957369
C     2.9484697692     1.8631341116     1.7176705209
C     1.9932612602     -1.6460697111     1.7844883254
C     1.9257398371     -0.2873244633     2.3228140174
C     0.7400379969     -2.297361376     1.4682424067
C     1.6909660518     -2.90571853     -0.7235521801
C     0.6634918164     -3.0347088523     0.2434076467
C     1.6314277623     -1.0221532179     -2.3102445942
C     1.0600895686     -2.2463998858     -1.8705837068
C     1.2841613299     1.422147138     -2.110879959
C     0.7263276206     0.1079282446     -2.462592052
C     0.3525345392     2.4094035633     -1.7426356877
C     1.7403159658     3.002887752     0.184029968
C     1.700187419     2.4524816448     1.538147358
C     0.5761929244     3.1074596836     -0.4869301435
C     0.6176684396     0.3831528175     2.3759357514
C     0.5158772061     1.792866124     1.9801709962
C     -0.5158905015     -1.7924186646     1.9805778006
C     -0.6176778009     -0.3826202066     2.3760218818
C     -1.7001950224     -2.4521360171     1.5387057318
C     -0.576194212     -3.10757096     -0.4862216962
C     -0.3525271284     -2.4097948411     -1.7420785269
C     -1.7403184366     -3.0028547096     0.1847094931
C     -0.726315287     -0.1084825116     -2.4625712097
C     -1.2841509587     -1.4226238712     -2.110555334
C     -1.0600794308     2.2459811975     -1.8711164536
C     -1.6314140623     1.0216314239     -2.3104912305
C     -0.6634914763     3.0347593506     0.2427051413
C     -0.7400431442     2.2976887855     1.4677215911
C     -1.6909587356     2.905545763     -0.7242272521
C     -1.9257499659     0.2878476924     2.3227432741
C     -1.9932653292     1.6464665541     1.7841055413
C     -2.9484786623     -1.8627443453     1.7180877601
C     -3.1176837187     -0.5162360101     2.1710078327
C     -2.9129425034     -2.4823000938     -0.4925564916
C     -2.6781409113     -1.5848687903     -1.5983449991
C     -3.8172753559     -2.0977078562     0.552920728
C     -3.0284636938     0.8180115449     -2.0085342936
C     -3.5836934083     -0.4831324831     -1.7176921341
C     -2.9485586805     2.5694086866     -0.3070204573
C     -3.1518544137     2.0589243591     1.0383580582
C     -3.7682363464     1.7801291548     -1.196040424
C     -4.2955382752     -0.0377830776     1.5103745554
C     -4.6673333653     -1.0216418397     0.433330357
C     -4.6814420289     -0.2866440611     -0.7760970188
C     -4.3312479222     1.2327988622     0.9392455361
C     -4.7556948643     1.12294876     -0.4569653136


