60

 C     -1.9462293049     -4.4012675951     -0.2085606465
C     -0.7295708781     -4.7786132501     -0.6715908808
C     0.2837199409     -4.6483285132     0.3693529779
C     -1.7518434037     -3.8742728465     1.1589522845
C     -0.3300922979     -3.9402812821     1.4817835326
C     -2.3269300962     -2.6150202816     1.1748074484
C     -2.4248467919     -3.2958562023     -1.0599423743
C     -2.8271630189     -2.2930959438     -0.2058519384
C     -0.3402590245     -3.9135265133     -1.8188452148
C     -1.3839873118     -2.9402457406     -2.0330454782
C     1.3862863759     -4.0429465242     -0.2492795381
C     0.9610329678     -3.4866416712     -1.5884337313
C     2.2361084892     -3.2713515659     0.5290782414
C     0.3450392828     -2.7917720928     2.0699935736
C     1.7158424632     -2.6336022219     1.7374768743
C     -1.7794887382     -1.518904994     1.9335828006
C     -0.4064992271     -1.5420749345     2.3781795916
C     -2.3937373201     -0.2846074161     1.681124603
C     -2.8160975102     -0.9454215774     -0.6448879303
C     -3.0255427723     -0.0119821112     0.3706629536
C     -1.0433830601     -1.5672746241     -2.2414710257
C     -1.9728713074     -0.5499160135     -1.7597873159
C     1.3749390772     -2.1522415514     -1.9592263355
C     0.3654891232     -1.1703090571     -2.3407935729
C     3.01631353     -2.3008376891     -0.1273359717
C     2.5768494283     -1.6896127906     -1.3587808598
C     2.389944039     -1.3598194516     1.8789162649
C     3.3120535172     -1.2489451315     0.7852981207
C     0.2676325237     -0.2526588371     2.5706466683
C     1.7086215447     -0.1887830016     2.329651378
C     -1.8465438149     0.9375237246     2.1091515124
C     -0.4818993817     1.0099496104     2.5084169024
C     -2.9472681675     1.3566965806     0.1053185109
C     -2.4547420786     2.0013519897     1.3093598773
C     -1.6977092012     0.8385479984     -1.9347723912
C     -2.4624075819     1.822430871     -1.1624521738
C     0.6948962516     0.242761178     -2.3317612628
C     -0.3638409926     1.2301606343     -2.38059999
C     2.8642266126     -0.2842652985     -1.2783378822
C     3.4329871641     -0.0413741857     0.0697265148
C     2.0156755897     0.6779590427     -1.8253945291
C     2.2616928996     1.0628208857     1.9101277786
C     3.0992937163     1.1097146581     0.7217004168
C     0.171823291     2.3231818212     2.2770614201
C     1.547364069     2.2994937234     1.9387080801
C     -1.936751219     3.257277348     1.2313300589
C     -0.5763308181     3.4724813328     1.7818688917
C     -2.1149850065     3.1984842335     -1.2156830638
C     -2.0717590011     3.9722862492     -0.0111236364
C     -0.0346174792     2.6268868765     -2.357548447
C     -0.9807108091     3.62687565     -2.0464713616
C     2.1788982432     2.0613086612     -1.3426614527
C     2.7172473758     2.2616009891     -0.0429145257
C     2.0494312797     3.165235986     0.8530013003
C     1.2885278872     3.0565733479     -1.8201418296
C     0.0215555084     4.4607313741     0.961699178
C     -0.9093543292     4.8204555148     -0.1067760731
C     -0.2913948185     4.6884412719     -1.3473463649
C     1.3058809616     4.2101712891     0.3434493774
C     1.0794837095     4.2444478673     -1.0986093349


