60

 C     0.0263249685     5.12152207     0.7802965624
C     0.999978349     5.1066534819     -0.2805598172
C     0.3706383649     4.7889396247     -1.4836395536
C     -1.2452329766     4.6252437722     0.1857115656
C     -1.0534549462     4.4537276905     -1.2021263384
C     -1.7097247758     3.5042411841     0.9478092382
C     0.4101368345     4.106970487     1.6680577899
C     -0.6861827608     3.1998060318     1.9530366423
C     2.013059132     4.0700322765     -0.0191531048
C     1.6874486572     3.4886848632     1.2283706005
C     0.9837988688     3.6297685568     -2.0618390662
C     2.0730639907     3.1821378277     -1.1632457226
C     -1.3003343021     3.1769760006     -1.7778358859
C     -0.0184954475     2.6825780335     -2.3414940432
C     -2.2860113832     2.3808210399     0.3199901107
C     -2.0687357091     2.2044909089     -1.108340172
C     -2.42683974     1.1745811548     1.1187830453
C     -0.4458612999     1.8825550185     2.3682124803
C     -1.4834956534     0.8799018956     2.171994957
C     1.8747216138     2.1108660861     1.4514221208
C     0.9414013334     1.4021561397     2.3330183722
C     2.2610475337     1.8174921828     -0.967725528
C     2.4369632014     1.3132430842     0.3841379398
C     0.2703374796     1.2856686901     -2.3584932528
C     1.5511617245     0.8483289391     -1.8480397685
C     -2.0255419052     0.8403506635     -1.6266557594
C     -0.8154292024     0.3524178558     -2.3087612721
C     -3.0588386162     0.0910593821     0.474327366
C     -2.8039652724     -0.0970582664     -0.9697701958
C     -3.0804551386     -1.1841340678     1.0394812508
C     -1.2383540332     -0.5198319197     2.5232453372
C     -2.0986286733     -1.5539655595     2.0176958583
C     1.1615234406     0.0518346064     2.5177089373
C     0.1027852382     -0.9211690451     2.779194543
C     2.5957298883     -0.0910606057     0.5672519772
C     2.1728600146     -0.6525105242     1.7845339192
C     1.7975919813     -0.5244763829     -1.7298328109
C     2.6141138925     -0.9950611322     -0.5903688774
C     -0.5395960561     -1.0525774252     -2.3876001575
C     0.8521938946     -1.4737266764     -2.3033543119
C     -2.6615813543     -1.5113388921     -1.2069936277
C     -2.9983533113     -2.1729480523     -0.0059695635
C     -1.5679489531     -2.0217891316     -1.9997378134
C     -1.6225370646     -2.8937777927     1.7268057682
C     -2.2415481249     -3.2904593309     0.4547253084
C     0.5866530243     -2.2340221851     2.4880103125
C     1.9192143877     -2.0672120996     1.9104222038
C     -0.2647792349     -3.2700983436     1.9635096204
C     2.7579175945     -2.3547494725     -0.364509824
C     2.4220869638     -2.9287880416     0.9602969799
C     1.1615730177     -2.8558596871     -2.2108601336
C     2.220240779     -3.2992763189     -1.3179245245
C     -1.2099254699     -3.3744510947     -1.7674133427
C     -1.5443715467     -4.0182991368     -0.4957587079
C     0.1253257754     -3.8300716364     -2.0659688033
C     0.3420483707     -4.2780530051     1.1118037171
C     1.7139204196     -4.1554424804     0.6974107774
C     1.8429411348     -4.5248079007     -0.6974075556
C     -0.3473641959     -4.7268925337     -0.0861405186
C     0.554785578     -4.8991410073     -1.1797452489


