60

 C     -0.5275405126     -4.4415929905     0.2058942427
C     -0.0837155933     -4.0148834514     1.4389121367
C     1.335897716     -3.6452583241     1.3434300866
C     0.6211039397     -4.2807325755     -0.7352978764
C     1.7438007222     -3.6953536242     -0.0238107688
C     0.1336036835     -3.6660327811     -1.8597509307
C     -1.6958108225     -3.8319034424     -0.3935506587
C     -1.3178419501     -3.429044246     -1.718730298
C     -2.4429778657     -2.9165469653     0.3656140556
C     -0.7558706535     -2.9757523462     2.192830439
C     -1.9679538045     -2.4992333186     1.7038324768
C     1.520815351     -2.490613433     2.1207168564
C     0.232492562     -2.0064314723     2.6292017065
C     2.4530245437     -1.5593713416     1.6835055753
C     2.4545580046     -2.5821190609     -0.5880122321
C     3.0037007149     -1.6492000612     0.3472585104
C     0.7440476887     -2.4850417964     -2.4105109989
C     1.9703845897     -1.9977804747     -1.8637864319
C     -1.5704882266     -2.1422169488     -2.1971215933
C     -0.3163397343     -1.5674157682     -2.7152617224
C     -2.9571642043     -1.7303937753     -0.2594356238
C     -2.4746536461     -1.2638885571     -1.5267290894
C     -2.3017044904     -1.1204316793     1.9095800991
C     -3.1331560664     -0.7490328011     0.789194686
C     -0.033220911     -0.6105243803     2.7113218064
C     -1.3919206987     -0.1498714623     2.4344021429
C     2.3144312433     -0.1822736588     2.0522578274
C     1.0765496137     0.343637231     2.5307514347
C     3.3860897544     -0.3146106217     -0.0243452777
C     3.1166277439     0.5616280136     1.1138090046
C     2.2390059545     -0.6361964103     -2.1407065402
C     3.0988967197     0.1716808533     -1.2991031117
C     -0.1146840703     -0.1671837914     -2.7677207563
C     1.2358162705     0.2541221943     -2.6614164118
C     -2.3729461163     0.1757824608     -1.777106623
C     -1.1933792603     0.7654158487     -2.4013253947
C     -3.3151111518     0.5519876994     0.4871453546
C     -3.1317451307     1.0098346106     -0.9017853873
C     -1.6623326087     1.2739177884     2.183128428
C     -2.8033826961     1.5773081262     1.3688911681
C     0.8130545933     1.7741816029     2.3412752505
C     -0.5799902078     2.2760285975     2.2577149485
C     2.8929475751     1.8949388915     0.9501462994
C     1.8559704379     2.5524157982     1.7291387883
C     2.7559160578     1.5580010064     -1.4810642474
C     1.5645773049     1.6146637065     -2.2936958914
C     2.8787608842     2.4621217248     -0.409957882
C     -0.868510159     2.1809933828     -2.1979882473
C     0.5636315176     2.6073358228     -2.1188093337
C     -2.9033747846     2.3705314837     -0.8430311795
C     -2.8516143289     2.7713146975     0.5992223432
C     -1.8304845416     3.0033878676     -1.5155017491
C     -0.8028658125     3.564717241     1.6413732257
C     -1.9277410604     3.75046463     0.7514603061
C     -1.3910842448     4.0632772095     -0.6118610306
C     1.54039061     3.7413695384     1.0062037836
C     2.0468806816     3.5770097429     -0.3894407885
C     0.9343426703     3.7224592458     -1.2621640291
C     0.2766195362     4.2441202261     0.9744106917
C     -0.0843333313     4.3862845181     -0.4736015689


