60

 C     0.279981286     4.6984355073     0.5056177412
C     1.5268228065     4.1461002025     0.7756286254
C     1.3733879055     3.2758741539     1.9468895221
C     -0.7097294699     4.1002828343     1.4441485756
C     -0.0371412374     3.1644399703     2.2674096486
C     -1.8204123939     3.6709243216     0.6490855643
C     -0.2516639082     4.6394826025     -0.8133587104
C     -1.5650522905     3.9881344345     -0.7197729181
C     0.4660126685     3.9895869504     -1.8266900989
C     2.2339862381     3.384939685     -0.235933062
C     1.6899780894     3.2927995779     -1.5441427152
C     2.0896768659     2.1115663178     1.7425711041
C     2.6787543752     2.1671871049     0.3867633197
C     1.6423049904     0.8517938425     2.2769022553
C     -0.6041548013     1.8472591178     2.5427989722
C     0.2715189903     0.6812560182     2.7071867634
C     -2.4252767708     2.4366220556     0.9389889501
C     -1.8980521832     1.6071269987     2.0069027051
C     -2.8083489052     1.5322416823     -0.1072567661
C     -1.6800772179     2.9766026832     -1.7302814621
C     -0.4463718217     3.0244119404     -2.459634934
C     -2.2704308824     1.7001783208     -1.4271400689
C     1.5978956005     1.968079399     -2.1718257436
C     0.2381689874     1.8402244482     -2.7134846482
C     2.8267155672     0.9607762122     -0.3231834887
C     2.217242259     0.8305597427     -1.6499169957
C     2.3307077067     -0.2663314401     1.7773132239
C     2.895690338     -0.2153081368     0.4582929992
C     1.8980521832     -1.6071269987     2.0069027051
C     -0.2715189903     -0.6812560182     2.7071867634
C     0.6041548013     -1.8472591178     2.5427989722
C     -2.3307077067     0.2663314401     1.7773132239
C     -2.895690338     0.2153081368     0.4582929992
C     -1.6423049904     -0.8517938425     2.2769022553
C     -2.8267155672     -0.9607762122     -0.3231834887
C     -1.7382179869     0.497546039     -2.064670426
C     -0.4265744115     0.5883617365     -2.6392077322
C     -2.217242259     -0.8305597427     -1.6499169957
C     1.7382179869     -0.497546039     -2.064670426
C     0.4265744115     -0.5883617365     -2.6392077322
C     2.8083489052     -1.5322416823     -0.1072567661
C     2.4252767708     -2.4366220556     0.9389889501
C     2.2704308824     -1.7001783208     -1.4271400689
C     1.8204123939     -3.6709243216     0.6490855643
C     0.0371412374     -3.1644399703     2.2674096486
C     0.7097294699     -4.1002828343     1.4441485756
C     -2.0896768659     -2.1115663178     1.7425711041
C     -2.6787543752     -2.1671871049     0.3867633197
C     -1.3733879055     -3.2758741539     1.9468895221
C     -0.279981286     -4.6984355073     0.5056177412
C     -2.2339862381     -3.384939685     -0.235933062
C     -1.5268228065     -4.1461002025     0.7756286254
C     -1.5978956005     -1.968079399     -2.1718257436
C     -0.2381689874     -1.8402244482     -2.7134846482
C     -1.6899780894     -3.2927995779     -1.5441427152
C     1.6800772179     -2.9766026832     -1.7302814621
C     1.5650522905     -3.9881344345     -0.7197729181
C     0.2516639082     -4.6394826025     -0.8133587104
C     0.4463718217     -3.0244119404     -2.459634934
C     -0.4660126685     -3.9895869504     -1.8266900989


