60

 C     -0.0463921124     -4.3156716002     -0.4387175179
C     0.2510073968     -4.0733048328     0.9122503205
C     1.6258581081     -3.5830460245     0.9969189788
C     1.0558815603     -3.7125251938     -1.2222287167
C     2.0629384884     -3.2538055827     -0.327736954
C     0.5012177073     -2.8144900992     -2.1543145096
C     -1.2558024571     -3.8567388962     -0.9540400823
C     -0.9352342374     -2.9827724445     -2.1158118894
C     -2.179917239     -3.1543660016     -0.1575070888
C     -0.5789166789     -3.2239756986     1.70325016
C     -1.8270216108     -2.755785635     1.1967050849
C     1.6810683054     -2.5911260159     1.9919271736
C     0.319429841     -2.2807057975     2.4016862089
C     2.6072847265     -1.569550525     1.8580615291
C     2.7359456245     -2.006798801     -0.5799439673
C     3.2736683136     -1.3693081418     0.5768448137
C     1.0324446726     -1.4877286925     -2.33981113
C     2.2732420231     -1.1298469196     -1.6700522401
C     0.0688457538     -0.4407050909     -2.7191549568
C     -1.8175390845     -1.9215733562     -2.1619255224
C     -2.7314106915     -2.1142567599     -1.0323057138
C     -1.3677356236     -0.5920898122     -2.4966724995
C     -3.3628277748     -1.0487824903     -0.5112936836
C     -2.3328535017     -1.4803555156     1.7036856552
C     -3.3700026469     -0.8420765805     0.9410275957
C     -0.0546273006     -0.9555857849     2.6886352617
C     -1.4650867338     -0.6057508508     2.4995547614
C     2.3174463972     -0.2591490947     2.3769530849
C     0.9879119569     0.1065627509     2.6964480769
C     3.6861900138     -0.0166069594     0.5292405811
C     3.1489450931     0.6620409548     1.6537152364
C     2.7066029042     0.2710868402     -1.6963729178
C     3.4592398832     0.8112043886     -0.6084891037
C     0.5407100993     0.8689557273     -2.8370614094
C     1.9165935308     1.2159643221     -2.4481132989
C     -0.304816914     2.0121715439     -2.6725895692
C     -2.1650321048     0.5404990438     -2.0782587525
C     -3.2618383636     0.2720423886     -1.156811171
C     -1.599362895     1.8829927423     -2.0778764231
C     -3.6814215833     0.5088177009     1.1142896245
C     -3.6362072231     1.2080920241     -0.2063312029
C     -1.7924560046     0.7744748055     2.6227338126
C     -2.9647139285     1.2962416728     2.0026648733
C     0.6121070576     1.5175306394     2.480722827
C     -0.7600173624     1.8056091277     2.5203261071
C     2.7426979218     1.9702273297     1.2716422562
C     3.1596488633     2.155907034     -0.1130639624
C     1.4996276341     2.4538403636     1.7451763362
C     1.9504372341     2.5873884496     -2.1826014372
C     0.5689126923     3.0960404522     -2.3220653625
C     2.4638411224     3.0476358639     -0.9203986659
C     0.9038272927     3.5045407666     0.9402965607
C     0.2682653656     3.9067080508     -1.2531761163
C     1.4255524217     3.8269626582     -0.3190478097
C     -1.968111254     2.8502985211     -1.026306139
C     -2.9370517645     2.4446126196     -0.0478016059
C     -2.6259600769     2.5509722272     1.3420801456
C     -1.3335831151     2.9269839014     1.7570005788
C     -0.9436459401     3.7338587853     -0.5354296255
C     -0.5478038827     3.6282157017     0.8594735006


