60

 C     -0.1272875602     4.6221369649     0.9601480487
C     0.782191794     4.6990990233     -0.108850088
C     0.0861505316     4.1709618894     -1.3140295584
C     -1.4050342961     4.1502167374     0.4756401254
C     -1.2924465976     3.9255719949     -0.9564808335
C     -1.8021473554     3.06603998     1.2915979632
C     0.3597591195     3.7068037884     1.9626350011
C     -0.6505781725     2.7253099872     2.1655330968
C     1.8795334921     3.8649737515     0.1733758436
C     1.6361201589     3.2326228453     1.4974113811
C     0.8417369035     3.1097666887     -1.8331035306
C     2.0178337683     2.9646264161     -0.9431985407
C     0.225987496     1.8989378569     -2.3637979795
C     -1.9184629799     2.8028900085     -1.4909740508
C     -1.1841246775     1.8488308723     -2.3313255757
C     -2.5719214149     2.0080290436     0.7596128315
C     -2.7717470273     1.9980662767     -0.6683694095
C     -2.5449226279     0.7284201231     1.4402152839
C     -0.3301054721     1.3515978845     2.3827128816
C     -1.3734046332     0.3456805421     2.2056264246
C     1.9730389855     1.8946299036     1.6504169623
C     1.0513159073     0.9378164496     2.2733213559
C     2.5785625796     1.7241046147     -0.7716698256
C     2.8526378708     1.3231988135     0.6242484846
C     0.9471657876     0.6358127267     -2.3580780449
C     2.2690000081     0.6387391344     -1.7142377607
C     0.2587364166     -0.635164816     -2.5143655363
C     -1.8567567554     0.5839523957     -2.2926089799
C     -2.930045289     0.7342057266     -1.3345784486
C     -1.2042752443     -0.6632727198     -2.4276602661
C     -3.3122621973     -0.3107585764     0.8355428131
C     -3.3945198223     -0.3482132607     -0.64622837
C     -3.1949414469     -1.6117981235     1.2573731532
C     -1.043051125     -1.0692526534     2.3646295344
C     -2.0663590692     -2.032424693     2.0379957817
C     1.3991862802     -0.4717508152     2.2869741554
C     0.3585533734     -1.4972243431     2.3389057379
C     3.3475574104     0.0791490749     0.8469560607
C     2.7003988017     -0.8243234515     1.8039916691
C     2.9560868995     -0.5513818266     -1.5267883739
C     3.7427536343     -0.7319782264     -0.2980316167
C     0.988700951     -1.8896786282     -2.2722975798
C     2.366313797     -1.8291462546     -1.8472497336
C     0.2623283733     -3.054630054     -1.9052322374
C     -1.932596723     -1.864233619     -1.9540477712
C     -3.0823904719     -1.6693508655     -1.0868777639
C     -3.2740846191     -2.5106636395     0.070713694
C     -1.1967255846     -3.0723475497     -1.7624542854
C     -1.716987374     -3.3317435534     1.5548919952
C     -2.4765579759     -3.5931959633     0.2880458453
C     -1.5391292656     -3.9850573288     -0.699715132
C     0.6802491111     -2.8393880664     1.8357813487
C     0.7842488689     -3.8782075401     -0.8300915774
C     -0.3881974577     -3.6894036459     1.3544713128
C     -0.3067352932     -4.2161852586     -0.0077073649
C     2.9806138648     -2.1312622173     1.32859745
C     3.728381151     -2.0616762392     0.0566271409
C     2.9083854858     -2.7698709464     -0.8950018163
C     1.9459860358     -3.0776444046     1.2222844303
C     1.978283971     -3.5609621341     -0.1912257556


