60

 C     0.2950099186     4.2356314901     -0.8515061919
C     1.2256001806     4.0731257673     0.1851665231
C     0.4731518593     3.774467817     1.4000716948
C     -1.0662672343     3.946867751     -0.3023209886
C     -0.9242086999     3.601272034     1.0481589739
C     -1.7314407102     3.0653073023     -1.2060079416
C     0.4175577266     3.5395573691     -2.0512843238
C     -0.8691389484     2.8757031244     -2.3226307824
C     1.4413226666     2.5649355727     -2.2167860103
C     2.2621691055     3.0972183653     0.0650177488
C     2.4157033221     2.3656985596     -1.1711766316
C     1.1456369352     2.7636186737     2.0921167086
C     2.3013830978     2.3435381655     1.3174587191
C     0.3779936876     1.7767388003     2.7668226245
C     -1.689486555     2.4829865183     1.5776388883
C     -1.0625762988     1.7108311951     2.5822066659
C     -2.52613522     1.9689129595     -0.7347251093
C     -2.6441235881     1.7916022996     0.7005737665
C     -2.6215411766     0.7892786451     -1.6010946579
C     -0.6135939553     1.5803773487     -2.7986322657
C     0.8152754456     1.3869116418     -2.8078654858
C     -1.5152090298     0.5017631258     -2.5158990096
C     1.3572515559     0.0874055511     -2.6766971845
C     2.9750493907     1.0646428295     -1.0772374249
C     2.5848709338     -0.0122820613     -1.9585633795
C     2.7549614804     1.0077141901     1.3832606743
C     3.30663639     0.4540045869     0.1840768203
C     0.8737421206     0.4675883098     2.9465302863
C     2.0967492445     0.0572104048     2.3198833837
C     -1.4450199682     0.3400655328     2.8516009403
C     -0.2639216565     -0.4532765811     3.0510197656
C     -3.1924024481     0.5535289687     1.1720491308
C     -2.5395123489     -0.2169079705     2.2442352143
C     -3.3712117725     -0.313271233     -1.1124475711
C     -3.7151902997     -0.3731758172     0.2772850881
C     -3.0289167756     -1.6348468267     -1.5011006474
C     -1.006987421     -0.8425602876     -2.6665594801
C     0.4449936202     -1.067903582     -2.7331384355
C     -1.8389960123     -1.9162064071     -2.1778111011
C     0.9650060679     -2.3212175765     -2.3110421094
C     2.9794234561     -1.2584481233     -1.3591013916
C     3.4060028472     -0.9687095089     -0.0027569069
C     2.2426186191     -2.4117862855     -1.6394868876
C     2.2543868736     -1.3241412436     2.135935751
C     3.0240937821     -1.8412849392     1.0304889836
C     -0.2022258044     -1.7936190253     2.641116768
C     1.1305345427     -2.276868599     2.3522479136
C     -2.5575560499     -1.6290181965     1.9014027909
C     -3.4274832913     -1.7361333023     0.7706874528
C     -3.0782218604     -2.5180826288     -0.3077311898
C     -1.3688796118     -2.4203552271     1.9814737615
C     -1.2553546321     -3.1008146724     -1.5629973557
C     0.0940077953     -3.3360275617     -1.6909031782
C     -1.9203448199     -3.3275115862     -0.2794952818
C     -1.1129324896     -3.4062072937     0.9119541465
C     2.1261919271     -3.4234961592     -0.6043270349
C     2.4850919047     -3.1268029277     0.6980388591
C     1.3105707126     -3.394800501     1.5500794797
C     0.7722304509     -3.9573967091     -0.6089886004
C     0.2336611175     -3.8653519664     0.7117154348


