60

 C     0.680410723     -4.8859096944     -0.5750596405
C     1.8197587513     -4.0853462812     -0.3477642238
C     1.8980955981     -3.7134010117     1.0312734896
C     -0.1158984578     -4.8172826263     0.6519061555
C     0.6100166927     -4.1001111033     1.6375719555
C     -1.4016006538     -4.3230789157     0.3242314632
C     -0.093990626     -4.1926084647     -1.5858293808
C     -1.4055436315     -3.9928676389     -1.1340005379
C     1.8421775995     -2.9870181964     -1.3123667639
C     0.6169182772     -3.0276042875     -2.0809227827
C     2.3909679194     -1.7432955033     -0.9744698661
C     2.1875024431     -2.3939869933     1.3872267056
C     2.654086046     -1.4441237955     0.4210779484
C     0.0748919413     -2.9399689198     2.268671448
C     1.1097450207     -1.9172260551     2.2495299462
C     -1.9858216599     -3.2300474758     0.9967248845
C     -1.260644005     -2.4764210212     2.0081901569
C     -2.0693216028     -2.7678404689     -1.331104454
C     -2.6359293562     -2.4325023015     -0.0367745888
C     -0.0614189784     -1.8007973699     -2.3949985544
C     -1.4724455602     -1.6763695101     -2.066568883
C     2.0446639257     -0.627530058     -1.8274927432
C     0.7447494822     -0.5878241306     -2.4607467469
C     2.7002363412     0.5788843634     -1.5318210845
C     2.7253728145     -0.0757460925     0.8367464199
C     3.0628557163     0.8773540834     -0.1382780772
C     0.8544434086     -0.5470225276     2.4264110113
C     1.8856031454     0.3707823786     1.962004988
C     -1.5490223355     -1.0484928074     2.1861525063
C     -0.5142660668     -0.0861917316     2.5548242073
C     -3.0151285556     -1.1589929067     0.2224903384
C     -2.622580891     -0.4896592911     1.4416387831
C     -2.0294386727     -0.340021285     -1.8817991556
C     -2.9635419391     -0.1652046172     -0.8218855341
C     0.1236983302     0.7147043635     -2.6649980286
C     -1.3029489732     0.8496041558     -2.3438950554
C     2.2606154456     1.7776286477     -2.0907209177
C     0.941444632     1.8863298557     -2.6037400475
C     2.9179472685     2.2955343874     0.0718224084
C     2.4899034349     2.8752395844     -1.1602666769
C     1.6751813197     1.7316130218     2.1439632203
C     2.2958330178     2.7408751744     1.2641314233
C     -0.7669496136     1.3503073901     2.5201371267
C     0.367089235     2.2154136016     2.5333549872
C     -2.7869075582     0.9190839211     1.2272759814
C     -3.1094139985     1.0935891126     -0.17971927
C     -1.993554923     1.8823349403     1.8902515568
C     -1.7758987572     2.1309848255     -1.9611321325
C     -2.7088900339     2.2425274081     -0.8417981999
C     0.4346979699     3.1897884941     -2.1652002055
C     1.4207930177     3.7945130984     -1.2354079847
C     -0.9179537568     3.315042752     -1.9017654145
C     1.4582303362     3.866445286     1.2157493462
C     0.2799019707     3.5792112581     2.0688639884
C     0.9789771182     4.4057838716     -0.0223571713
C     -1.995372939     3.21168881     1.3166569206
C     -2.3611875016     3.3540947564     -0.0541770502
C     -1.3357508502     4.1257486366     -0.7660359703
C     -0.8553375616     4.0747829594     1.4813338879
C     -0.4400496835     4.6246021443     0.1528835872


