60

 C     0.4928130001     4.5816953465     -0.3714197546
C     0.2780919238     3.946305541     -1.6841055205
C     -1.0482689192     3.6050206969     -1.7816530923
C     -0.680230969     4.3637685844     0.4245918453
C     -1.6886313018     3.8754626583     -0.4490865649
C     -0.3181912564     3.5886075839     1.6027410704
C     1.5652950533     3.9169201981     0.227710616
C     1.1304075192     3.4396427264     1.5355585696
C     1.2755498947     2.904543658     -1.8688774106
C     2.1117722227     2.9354588545     -0.6839042518
C     0.932561919     1.6514063638     -2.4365281505
C     -1.4332285799     2.2974248602     -2.2003589446
C     -0.485070701     1.3426920774     -2.6716954674
C     -2.4106610482     2.7460890364     -0.1208722753
C     -2.4358113531     1.8327261053     -1.2983190351
C     -1.1003146224     2.4713362241     2.0203222632
C     -2.2706437479     2.1288807146     1.1893992576
C     -0.4535708994     1.3562209257     2.7424341353
C     1.7216046127     2.3054217714     2.0233925805
C     0.9679670535     1.3444503831     2.7802585006
C     2.7207508762     1.7396563581     -0.1881569732
C     2.692985428     1.5484381289     1.2216857495
C     1.8513352476     0.536162787     -2.2021363863
C     2.7587717983     0.5687116666     -1.0509548108
C     1.4909297665     -0.7052112268     -2.73489092
C     -0.9192475231     -0.0353024665     -2.7342282618
C     0.0873542598     -0.9873367899     -3.0803349807
C     -2.7709340055     0.4824289193     -1.1834782023
C     -2.0931603834     -0.5040054808     -2.0163040909
C     -2.829947482     0.8644507245     1.2937583664
C     -3.2882352442     0.1024968096     0.0981901985
C     -1.1270994956     0.0597723227     2.8949362113
C     -2.406613568     -0.1052397135     2.2790037045
C     -0.3516816378     -1.1456906778     3.0532274687
C     1.7209282056     0.1078345664     2.7770386548
C     2.7719954544     0.2390744504     1.7738834114
C     1.0898978562     -1.1043662475     2.9381406139
C     3.1250212649     -0.6758156071     -0.470275328
C     3.0881499934     -0.842772277     0.9608236039
C     2.0589470731     -1.9542668158     -2.2717723919
C     2.7755094374     -1.9470095681     -1.0695123075
C     -0.1368950272     -2.3582602186     -2.9594294409
C     1.0912370163     -2.9890970213     -2.5014997883
C     -2.198956499     -1.926942516     -1.6551712234
C     -1.2341850835     -2.8518589307     -2.1685842479
C     -3.3327313158     -1.2300329645     0.4464111799
C     -2.8213570477     -1.3728072715     1.8079328591
C     -2.7624041662     -2.2545956451     -0.368151411
C     -0.7696102689     -2.4115516732     2.5047888648
C     -2.0058983604     -2.5159605801     1.8343375902
C     -2.0778027531     -3.1740986308     0.5264119614
C     1.5508390697     -2.2866304149     2.2170689869
C     2.5406607869     -2.1639739255     1.2398858117
C     2.4281003033     -2.8890297083     -0.0067786
C     0.3909512324     -3.1181331974     1.9719424625
C     0.7512998963     -3.8825401007     -1.4890230098
C     -0.6981631798     -3.8879875833     -1.3296593745
C     -0.9805828457     -3.8984725201     0.0549006696
C     1.3691613184     -3.7996103665     -0.1907118372
C     0.2992397012     -3.8645011042     0.7970967467


