60

 C     -1.0570451687     -3.9991536134     -0.6717179062
C     -0.537466768     -4.1572598816     0.6179487982
C     0.9127381499     -3.9510603372     0.5372719827
C     0.0460712872     -3.7461497507     -1.5986944638
C     1.2625062131     -3.7069464126     -0.8371459862
C     -0.304656011     -2.6574036194     -2.4162143951
C     -2.0878422146     -3.0424874402     -0.9308334669
C     -1.6715492872     -2.2403576706     -2.0848043563
C     -2.7054958266     -2.4075903151     0.1535179044
C     -1.041191024     -3.3848829359     1.7037063879
C     -2.1717904462     -2.5818945846     1.4916140058
C     1.3199108493     -3.0767161601     1.5616775785
C     0.1251983707     -2.7657479969     2.3579539429
C     2.3022750476     -2.0491647938     1.3104704412
C     2.1946216615     -2.6977329998     -1.0940103989
C     2.826624162     -1.9800989893     -0.0083713527
C     0.6843406331     -1.6576135186     -2.7656713328
C     1.9700962645     -1.736150613     -2.1550806267
C     0.2021102858     -0.3625990577     -3.1026511952
C     -2.0639467704     -0.9043977134     -2.2254471988
C     -1.1688747667     -0.0127016799     -2.9266794462
C     -3.1306038749     -1.0278973465     0.0229479342
C     -2.9262825245     -0.3021644219     -1.184020082
C     -2.2895586735     -1.2899763038     2.1605976149
C     -2.9798601433     -0.3634325375     1.2984556207
C     0.0073909801     -1.5424293611     2.9754220644
C     -1.2485270207     -0.8135414876     2.9459321092
C     2.2338666773     -0.7896553243     2.093208854
C     1.0740643775     -0.5578139995     2.9015794047
C     2.8999773267     0.3664814704     1.6174893613
C     3.2952171693     -0.721030964     -0.5461473948
C     2.716675568     -0.5314910787     -1.8530746828
C     3.5036143914     0.3721175737     0.2851632957
C     1.0043699981     0.839700954     -2.9285571589
C     2.2650392223     0.7635347714     -2.2638333654
C     -1.2248939221     1.4065725274     -2.7581265075
C     0.1261244215     1.9461926189     -2.7405020626
C     -2.9909247418     1.1052833084     -1.0739487906
C     -2.2163889425     1.9942940854     -1.9627484509
C     -2.7980971664     1.0372623967     1.3995093716
C     -3.0680057277     1.769094971     0.1989646059
C     -0.9447150932     0.5983356846     2.9679610437
C     0.494551432     0.746842311     3.034314259
C     -1.7609322455     1.5562582569     2.3158837057
C     2.4106010497     1.7098435001     1.8932416796
C     1.1401151713     1.9083483574     2.5205627382
C     3.3392799136     1.6713721877     -0.2509537904
C     2.6421440318     1.8956745531     -1.4540076709
C     2.7447448207     2.5173940297     0.7671564696
C     0.4628070941     3.0557489265     -1.8732816213
C     1.7211500507     3.0234165491     -1.236603395
C     1.8465721781     3.419561342     0.1764072744
C     -1.9877329215     3.2264597724     -1.3200281147
C     -2.5188507801     3.0762276111     0.0218397493
C     -0.6435946233     3.7240225277     -1.1679417749
C     -1.1329072331     2.816931937     2.0106095053
C     0.307094797     2.9770969965     2.0652818809
C     0.6883348171     3.7710432312     0.8980677713
C     -1.6187359785     3.6248271456     0.9372583872
C     -0.4797586171     4.1376033114     0.189081146


