60

 C     -1.4826657807     -4.1857462033     0.3883516886
C     -0.5927262391     -4.1235912288     -0.7326577713
C     0.7314158606     -3.8843928186     -0.2772899792
C     -0.7331484768     -3.8464129532     1.5595196895
C     0.6247706026     -3.6525657905     1.1760527961
C     -1.374707203     -2.7044576903     2.1746256949
C     -2.413266372     -3.1333494605     0.1811810184
C     -2.4406438221     -2.2382587624     1.308430237
C     -1.1471229734     -3.2526655055     -1.7568409453
C     -2.3066272999     -2.5924939244     -1.1556497546
C     -0.2768921172     -2.5084949217     -2.5323750846
C     1.6441078304     -3.1180997351     -1.0646565184
C     1.151947401     -2.5137055513     -2.2837959303
C     2.6784980018     -2.4158984544     -0.3612176528
C     1.4360371942     -2.6227615054     1.8050601739
C     2.5060848148     -2.0906718984     1.0645013387
C     -0.6279170247     -1.7437027704     2.8532243429
C     0.8111338247     -1.7281784027     2.7452159404
C     -1.0957490995     -0.3918476325     2.9178606901
C     -2.7104717441     -0.8624505614     1.1265217708
C     -2.1312580731     0.1010144802     2.0834646283
C     -2.5843818653     -1.2368016656     -1.374908043
C     -2.989232112     -0.3996754071     -0.2221063292
C     -0.6676486651     -1.1800732308     -2.957448665
C     -1.8661239423     -0.5756075612     -2.4793046173
C     1.6285033509     -1.2219955287     -2.7028332728
C     0.511394823     -0.3928266337     -3.1284345821
C     3.2641204418     -1.281917273     -0.9393696359
C     2.703664833     -0.6159995633     -2.0479658828
C     3.0066770833     -0.726057739     1.3115695815
C     3.5003591675     -0.2684357565     0.0924659642
C     1.2511677117     -0.3666783609     2.9223835123
C     0.0767015186     0.4250636483     3.1829573197
C     2.3179204991     0.1989762715     2.1727040928
C     0.0689653845     1.7700925533     2.9533898503
C     -2.1687438891     1.5416792765     1.8195333267
C     -1.1491427102     2.3980454227     2.4111675727
C     -3.0881191108     0.9952606858     -0.4265248555
C     -2.7469165144     1.9936371127     0.6122472481
C     -1.9337790766     0.8230867733     -2.5884291873
C     -2.7526351555     1.5600583776     -1.6705427113
C     0.4997160922     1.0244389121     -2.9434371824
C     -0.7718787779     1.633990584     -2.8489059139
C     2.6753549242     0.8291659465     -1.7488837246
C     3.201722595     1.0176457011     -0.4118803918
C     1.6400763431     1.6583121341     -2.2295666451
C     2.2634182327     1.6206537461     1.8037685557
C     1.2308043926     2.4243577408     2.406391512
C     2.6896743421     2.0205091705     0.4576943004
C     -0.7512468436     3.5816623382     1.7950622775
C     0.7363657154     3.6039329794     1.7820833901
C     -2.282937883     3.1986664457     -0.0531059546
C     -2.1964212198     2.8618899568     -1.4537196335
C     -0.9628549477     2.9133495303     -2.1465439105
C     -1.2365056867     3.9589297549     0.4995554808
C     1.4306704781     2.8729493221     -1.5073188965
C     2.0165058846     3.0939182317     -0.217292164
C     1.1196428026     3.951958523     0.5023141006
C     0.1281647194     3.5706926204     -1.536997646
C     -0.06382224     4.2318759515     -0.3092940136


