60

 C     -2.9596510844     -0.4114619734     -2.6987520846
C     -2.1005733983     -1.39381516     -3.1254287455
C     -1.1239052289     -0.8071906237     -4.0491044812
C     -2.4116265382     0.8831902649     -3.1558239283
C     -1.2883827454     0.6217414796     -4.0064517014
C     -2.2840635695     1.6582370772     -1.9989071707
C     -3.2931069811     -0.3316127399     -1.3237182375
C     -3.0516868674     1.0228172853     -0.9231245841
C     -2.87463793     -1.3596894381     -0.4161556443
C     -1.3831484805     -2.221504492     -2.1667641364
C     -1.733117359     -2.2106431313     -0.8030727261
C     0.1281177974     -1.4045637152     -3.8165071325
C     -0.001727451     -2.2394462394     -2.5910292535
C     1.2883827454     -0.6217414796     -4.0064517014
C     -0.1281177974     1.4045637152     -3.8165071325
C     1.1239052289     0.8071906237     -4.0491044812
C     -1.0277964375     2.3019544398     -1.6293107458
C     0.001727451     2.2394462394     -2.5910292535
C     -0.6908794725     2.4689316879     -0.2084600089
C     -2.87463793     1.3596894381     0.4161556443
C     -1.733117359     2.2106431313     0.8030727261
C     -3.0516868674     -1.0228172853     0.9231245841
C     -3.2931069811     0.3316127399     1.3237182375
C     -2.2840635695     -1.6582370772     1.9989071707
C     -0.6908794725     -2.4689316879     0.2084600089
C     -1.0277964375     -2.3019544398     1.6293107458
C     1.0277964375     -2.3019544398     -1.6293107458
C     0.6908794725     -2.4689316879     -0.2084600089
C     2.4116265382     -0.8831902649     -3.1558239283
C     2.2840635695     -1.6582370772     -1.9989071707
C     2.1005733983     1.39381516     -3.1254287455
C     1.3831484805     2.221504492     -2.1667641364
C     2.9596510844     0.4114619734     -2.6987520846
C     0.6908794725     2.4689316879     0.2084600089
C     1.733117359     2.2106431313     -0.8030727261
C     1.0277964375     2.3019544398     1.6293107458
C     -1.3831484805     2.221504492     2.1667641364
C     -0.001727451     2.2394462394     2.5910292535
C     -2.9596510844     0.4114619734     2.6987520846
C     -2.4116265382     -0.8831902649     3.1558239283
C     -2.1005733983     1.39381516     3.1254287455
C     0.1281177974     1.4045637152     3.8165071325
C     -1.2883827454     -0.6217414796     4.0064517014
C     -1.1239052289     0.8071906237     4.0491044812
C     0.001727451     -2.2394462394     2.5910292535
C     -0.1281177974     -1.4045637152     3.8165071325
C     1.733117359     -2.2106431313     0.8030727261
C     1.3831484805     -2.221504492     2.1667641364
C     3.0516868674     -1.0228172853     -0.9231245841
C     3.2931069811     0.3316127399     -1.3237182375
C     2.87463793     1.3596894381     -0.4161556443
C     2.87463793     -1.3596894381     0.4161556443
C     2.2840635695     1.6582370772     1.9989071707
C     3.0516868674     1.0228172853     0.9231245841
C     3.2931069811     -0.3316127399     1.3237182375
C     1.2883827454     0.6217414796     4.0064517014
C     1.1239052289     -0.8071906237     4.0491044812
C     2.1005733983     -1.39381516     3.1254287455
C     2.4116265382     0.8831902649     3.1558239283
C     2.9596510844     -0.4114619734     2.6987520846


