60

 C     4.6807969184     -0.9960682345     0.9690438705
C     4.6987137377     0.4039735038     0.6187729593
C     4.6774639383     0.5351975876     -0.7996334752
C     4.2536472441     -1.6797292833     -0.2516449227
C     4.2961081463     -0.8182619142     -1.349159847
C     3.0367055739     -2.4066427536     -0.0087285777
C     3.6072590978     -1.1592140251     1.8605971359
C     2.6556927076     -2.1093394797     1.3580243548
C     3.7044024784     1.1205834398     1.3940613879
C     3.0132239372     0.12291952     2.195525537
C     2.9249254487     2.1676933084     0.793266462
C     3.8362216219     1.4613517372     -1.3865368945
C     3.0016867948     2.3548553535     -0.6366497792
C     3.1422302702     -0.6379288102     -2.1893362379
C     2.9671079032     0.7677358895     -2.3476678397
C     1.9965456031     -2.4341481664     -0.9846451974
C     1.9525729934     -1.4436884886     -2.053116514
C     0.7673505385     -2.8899793684     -0.48686557
C     1.2866090644     -2.0790271945     1.7663934801
C     0.4346955905     -2.8202688775     0.9345090289
C     1.621554137     0.2234751683     2.5383468578
C     0.7171636243     -0.9265019779     2.4568948667
C     1.6623859309     2.4231342582     1.3991265805
C     1.0420020632     1.4918924279     2.3398254097
C     0.582701919     2.9738741043     0.6656813643
C     1.7549664832     2.4454359168     -1.3602427412
C     1.7093521804     1.3699568164     -2.3574463922
C     0.5632205529     2.8321959052     -0.7556408276
C     0.6464629721     -0.864949635     -2.3825137218
C     0.5223534597     0.5880198403     -2.4868771898
C     -0.445907631     -2.6940135657     -1.1759472685
C     -0.5769510379     -1.5907879594     -2.0748844981
C     -0.9685503562     -2.7913689433     1.0797436009
C     -1.5144165174     -2.9787690094     -0.2443403552
C     -0.7262792609     -0.7474990636     2.4481188212
C     -1.5882802818     -1.8113420797     1.9250713309
C     -0.381007791     1.6740637912     2.3442404203
C     -0.6452591561     2.7324048747     1.4023731371
C     -1.3022228099     0.6062870218     2.4550996847
C     -1.8419948515     2.8245515592     0.7697279912
C     -0.7013404935     2.436024704     -1.3882659949
C     -0.7465804975     1.2387771245     -2.2126658006
C     -1.874651892     2.82215266     -0.7050111277
C     -1.9030717685     -0.9715490583     -2.2101555081
C     -1.9869293416     0.4855374616     -2.3215886039
C     -2.78395542     -2.5946695703     -0.5341141159
C     -3.0303621791     -1.664616526     -1.6378961337
C     -2.9764614637     -1.5687294921     1.6895986562
C     -3.6376500125     -2.1986235728     0.5584336327
C     -2.7026404843     0.8600738118     2.0249129895
C     -2.9739136596     2.0541243184     1.2425858027
C     -3.571525174     -0.2532831445     1.7984014393
C     -3.0977103684     2.2594257343     -1.048739657
C     -3.2111348589     1.1287034905     -1.9149900979
C     -3.9155749031     2.0164086247     0.1601818523
C     -4.2625770688     -1.0046784375     -1.2947458677
C     -4.6787855579     -1.3921282522     0.0712125417
C     -4.6744733238     -0.1869816763     0.83298912
C     -4.3322847744     0.3795689144     -1.4166876677
C     -4.7036301959     0.9143896918     -0.0760217911


