60

 C     0.6095662154     4.6713236368     0.2677345324
C     -0.1347797582     4.1725622778     1.4292293258
C     0.7383172045     3.4209667826     2.2163885934
C     1.8779001394     3.9706905735     0.2431001487
C     2.0091180197     3.2759485994     1.4406341566
C     1.9567825958     3.1619813149     -0.9700354097
C     -0.0985632181     4.2297630249     -0.8501423779
C     0.7344969644     3.3891219411     -1.6993700951
C     -1.3689714318     3.5572188961     1.0059279841
C     -1.3989939118     3.7046079373     -0.4535913792
C     -1.8135828458     2.3271932429     1.5732304912
C     0.3855992145     2.1395764869     2.6777373078
C     -0.9219695079     1.6008162044     2.4867566794
C     2.4142954891     1.9170649111     1.5019212507
C     1.5187519982     1.2539376151     2.4101795188
C     2.5423947787     1.852978872     -0.9504286687
C     2.8321707318     1.1944394298     0.3340342504
C     2.163093504     0.9871698924     -2.0084281014
C     0.1380450197     2.3422752777     -2.4644431866
C     0.9387777602     1.207226752     -2.7407967959
C     -1.9897490733     2.7309975902     -1.2298334175
C     -1.2625897251     2.0784309447     -2.3251843799
C     -2.7496624648     1.5202550141     0.7828380026
C     -2.8184282535     1.7346180486     -0.623643034
C     -3.0667985401     0.2037161972     1.2294326239
C     -1.0680395322     0.1651719906     2.6764985391
C     -2.2610156905     -0.4578852807     2.2239242032
C     1.4110068949     -0.1314962139     2.4474547792
C     0.1196056699     -0.6841196583     2.829572547
C     2.8784932499     -0.2411777213     0.4305743395
C     2.3545580986     -0.887533754     1.6307852182
C     2.4185656788     -0.4155996539     -1.9684049279
C     2.8891188809     -1.0505673868     -0.7971993218
C     0.37944361     -0.0786965071     -3.0642271677
C     1.3718445254     -1.0695066887     -2.756973977
C     -1.8021798635     0.766423685     -2.5010364091
C     -2.8690978356     0.5988440762     -1.5361033065
C     -0.999769411     -0.3603989251     -2.8738559411
C     -3.5333911265     -0.7925389144     0.3023219877
C     -3.2252939029     -0.6503442161     -1.0826128379
C     -2.3089154101     -1.8884634462     1.9259506545
C     -3.0304103067     -2.0538134892     0.7029037808
C     -0.0051933088     -2.0915232188     2.707822416
C     -1.2130073238     -2.6962488482     2.1322448203
C     2.2289872823     -2.3029602869     1.6586000163
C     1.0780164347     -2.8623196425     2.2720684878
C     2.7106261712     -2.4886393966     -0.731981736
C     2.5340813928     -3.1137146315     0.5090442265
C     1.0261304671     -2.3883060768     -2.5405735777
C     1.8527820693     -3.1728615027     -1.6978277161
C     -1.3804375549     -1.7225670941     -2.4088742991
C     -2.490663215     -1.8451717606     -1.5243177929
C     -2.4339625254     -2.7535951982     -0.4071161145
C     -0.3801660535     -2.7320817313     -2.3118004663
C     -0.8250181885     -3.7280410408     1.1749984861
C     0.5630803119     -3.9399453279     1.3835018004
C     1.4713410994     -4.1305979237     0.3540032218
C     1.0064994342     -4.0721783092     -0.9870517411
C     -1.3269345231     -3.6337100214     -0.1889813627
C     -0.3759063038     -3.7387170485     -1.2665788491


