60

 C     -1.6875516961     -4.3267306428     -0.2366738681
C     -0.520840804     -4.4030993958     -1.0968437552
C     0.5872096599     -4.5892891835     -0.2515395965
C     -1.203978814     -4.0832801355     1.1463192462
C     0.1501692797     -4.302434167     1.1830554093
C     -1.7299523424     -2.8172009539     1.6206257219
C     -2.4189054744     -3.2147357844     -0.591402509
C     -2.6073862039     -2.3681521672     0.577009713
C     -0.5231373032     -3.245254649     -1.9768136127
C     -1.7739366227     -2.5544218956     -1.7308790822
C     0.6473732063     -2.4245083089     -2.1601267258
C     1.7445606749     -3.8744553418     -0.4641302274
C     1.840045527     -2.8401437837     -1.4471253669
C     1.0412031162     -3.3132243063     1.7261375705
C     2.1376165201     -3.2497007094     0.8201768536
C     -0.8919922496     -1.824185202     2.2407469951
C     0.5469426411     -2.0562053917     2.2843506992
C     -1.3982629651     -0.454567722     2.2775722216
C     -2.8886251184     -1.0264743479     0.3956689503
C     -2.5899854958     -0.1345668462     1.4979178218
C     -1.9161907114     -1.1814245616     -1.8914971213
C     -2.8053515556     -0.483049852     -0.9546688808
C     0.4846705267     -0.9932614672     -2.4621564492
C     -0.8266155085     -0.3954699591     -2.4628692385
C     1.6392062286     -0.0839829223     -2.2905899194
C     2.6639209685     -1.8105524937     -0.8639659307
C     2.7924758031     -2.0660969707     0.5661886672
C     2.6950488727     -0.4984268168     -1.3512524293
C     1.4334594975     -0.8980668191     2.2776121815
C     2.6326957479     -0.963435609     1.4520521176
C     -0.518955939     0.6388865506     2.6416149165
C     0.9155043112     0.4317736939     2.6031203012
C     -1.0188002608     1.9958092584     2.4906797445
C     -3.0143381436     1.1948337241     1.3361275074
C     -2.2807017438     2.2410490605     1.9504152346
C     -2.9941538154     0.8883823367     -1.1006403583
C     -3.3598293105     1.6672832138     0.0174828864
C     -0.9903927228     1.0580226312     -2.558546772
C     -2.1308617828     1.6894109511     -1.98068945
C     1.4907302574     1.2880587637     -2.5005080686
C     0.1731525148     1.8706937481     -2.7284396216
C     2.2980609407     2.2806143722     -1.7788530365
C     3.2867282921     0.4589400665     -0.482671833
C     3.2211321967     0.2154886843     0.9657573196
C     3.1291658279     1.8639306604     -0.7157317429
C     1.7546354427     1.5801789337     2.3462543015
C     2.9124833951     1.4376016958     1.5640297733
C     2.9627370508     2.5019158338     0.5557096609
C     -0.1424865242     3.0998433635     2.0604798079
C     1.198225312     2.8925410783     1.9742818049
C     1.9435821633     3.4261261144     0.8101278533
C     -2.1909015745     3.3767212506     1.0072735408
C     -2.815830634     2.9945887864     -0.1760229711
C     -2.0651339979     3.0160704029     -1.4156226014
C     -0.858126439     3.882045659     1.0248488209
C     0.1973417618     3.1945097312     -2.2349326988
C     1.48666614     3.4243720547     -1.5861359014
C     1.2227781861     3.959546941     -0.2960733
C     -0.8463560672     3.7253152975     -1.4413215894
C     -0.2199401421     4.1818436478     -0.1849129847


