60

 C     1.8295659277     -4.3525835955     -0.0613643158
C     0.9750451426     -4.3594879584     1.1420719636
C     -0.3243020808     -4.6498664497     0.7316838361
C     0.9167181103     -4.2452074901     -1.2134475332
C     -0.3641554514     -4.5178923247     -0.7789005357
C     1.1803336843     -2.9907014248     -1.9217090253
C     2.546302834     -3.1828769289     -0.0385039351
C     2.3123394774     -2.4125899037     -1.2670976856
C     1.1999558275     -3.1344756513     1.8808387781
C     2.292771113     -2.4581402312     1.2156763271
C     0.1084618978     -2.3088650859     2.3420954628
C     -1.400992441     -3.9097274393     1.2240534755
C     -1.2309824145     -2.764134779     2.0535033995
C     -1.4537121507     -3.6557535761     -1.1215168709
C     -2.2040633359     -3.4668429407     0.0773980075
C     0.125602484     -2.1158269367     -2.3582238013
C     -1.2422095652     -2.4959118527     -1.9836717955
C     0.4556172394     -0.7047393342     -2.571947533
C     2.5307894146     -1.047295561     -1.2535448534
C     1.7660450117     -0.2247453519     -2.1784717041
C     2.4424355304     -1.0852399381     1.2360677818
C     2.941887075     -0.4346687286     0.0170183892
C     0.3239069951     -0.8734504089     2.4795766071
C     1.5751189571     -0.2805930111     2.0899025673
C     -0.8468585004     0.0296991553     2.5280873939
C     -2.2368865897     -1.774187046     1.6416558765
C     -2.8175314169     -2.2495302427     0.3947230697
C     -2.0917932031     -0.4114019593     1.8718984379
C     -2.1652651173     -1.4354728006     -1.8396078173
C     -2.979313032     -1.3176787329     -0.627157498
C     -0.5969835104     0.3120388449     -2.6718100243
C     -1.8860508181     -0.1040222339     -2.276697374
C     -0.293171884     1.765395305     -2.5890675472
C     2.0485637986     1.1588973583     -2.16042689
C     1.0390133995     2.1787571441     -2.4252537579
C     3.0990202681     0.9323967604     0.0267828571
C     2.9108231081     1.6778949505     -1.1670975979
C     1.7489135521     1.162502207     2.087601124
C     2.6210597443     1.7681965497     1.1432536474
C     -0.6585488286     1.3896124557     2.6702289333
C     0.6800810958     1.9795593471     2.606037586
C     -1.5976631619     2.3853859971     2.1389001437
C     -2.7633947674     0.547145064     0.9813648961
C     -3.133705192     0.0473191061     -0.3020477608
C     -2.7086953722     0.7999141599     -1.4632692046
C     -2.5141417981     1.9708359359     1.1166907435
C     -1.313689054     2.6873352387     -2.0846546653
C     -2.4481026743     2.1199556223     -1.3641974417
C     -2.5822249315     2.8006536705     -0.0709595132
C     -0.9903152614     3.8729764512     -1.4204452723
C     -1.8182980937     3.9776522025     -0.1850680131
C     1.3826479681     3.3729273951     -1.6394464166
C     2.4605938604     2.999091112     -0.804485241
C     2.3595597376     3.0921580041     0.6268190624
C     0.3643268476     4.1998696675     -1.0893298442
C     0.5466347462     3.3238198341     2.2572925345
C     -0.8801924587     3.6030726698     2.0167990131
C     -0.9653936958     4.378770402     0.8508070954
C     1.3187973092     3.889334857     1.180692561
C     0.4057050437     4.5407422502     0.2998999969


