60

 C     -0.1918681743     -4.6500330659     0.0778529322
C     0.8173557739     -4.1926479189     -0.8324797397
C     1.9051952809     -3.7489676619     -0.0665178162
C     0.1744081264     -4.0888419688     1.4066707962
C     1.4901358792     -3.6588642396     1.3644694804
C     -0.8367102034     -3.167240003     1.8516833856
C     -1.3693295374     -3.9945131822     -0.2755777061
C     -1.9143281658     -3.2982896105     0.876389797
C     0.2131273505     -3.2260824332     -1.7751390373
C     -1.1905872453     -3.1998493972     -1.4858354787
C     0.8881714043     -2.0172738985     -2.1408394425
C     2.5996018744     -2.5896947488     -0.3975885328
C     2.2318289224     -1.821052774     -1.5653198835
C     1.8580990686     -2.3672684902     1.8153171275
C     2.7813401709     -1.8349365609     0.826990258
C     -0.5041403832     -1.8484318488     2.3274107326
C     0.9041779247     -1.4374855921     2.3456616422
C     -1.5408936522     -0.8059931996     2.2343739728
C     -2.7486685507     -2.2551823193     0.635400775
C     -2.7270696193     -1.0959300709     1.4998525839
C     -1.9633714973     -2.0347501151     -1.6867604487
C     -2.983492354     -1.7611289133     -0.7145373045
C     0.1097763201     -0.8271262939     -2.4915929595
C     -1.3421851357     -0.8798073804     -2.3489010864
C     0.7660976807     0.4961803766     -2.5614409044
C     2.8084305327     -0.5646936006     -1.6199041059
C     2.1631655725     0.5553604399     -2.2886582194
C     3.1719151205     -0.5055477458     0.8122594357
C     3.5347698303     -0.0122650189     -0.4885556189
C     1.2707916444     -0.0133187331     2.3607892519
C     2.5646419442     0.4052759611     1.7840438971
C     -1.1902980686     0.6041036705     2.4224498323
C     0.2317947108     0.9801375187     2.5522516686
C     -2.1385223151     1.5923060997     2.0167154136
C     -3.4623950573     -0.0723773608     0.8247627613
C     -3.5362948935     -0.4628314952     -0.5898119838
C     -3.2622663895     1.2523311431     1.1748490592
C     -2.0652768093     0.3339759944     -2.3576918327
C     -3.262372934     0.5069882492     -1.5665091475
C     0.0254674574     1.7405278977     -2.3926383767
C     -1.4009912707     1.6408996846     -2.4174193482
C     0.6163659126     2.9126679819     -1.7217481764
C     2.7607106197     1.7457397193     -1.8321988564
C     3.642784553     1.3724059568     -0.6936351285
C     2.0248317243     2.8899158349     -1.477337919
C     2.8485677501     1.7870164288     1.5993595722
C     3.4269843783     2.2537558844     0.3358910689
C     2.5715675903     3.3392539249     -0.1878707855
C     0.5801465722     2.3627559915     2.3432338998
C     1.865537527     2.7374796983     1.9425923094
C     1.7045938254     3.6845177006     0.807943538
C     -1.6920303726     2.9146555444     1.5613270899
C     -0.2275272401     3.6626930063     -0.7671638894
C     -0.364843121     3.2683271107     1.6753749218
C     0.3157347786     3.8672398526     0.5577995903
C     -3.3792842129     2.2549648405     0.1391609495
C     -3.3432317633     1.8912481629     -1.2037559395
C     -2.2114972627     2.5991841668     -1.7927645058
C     -2.3843125015     3.2887421512     0.3849566906
C     -1.6343288908     3.4917744492     -0.8176405594


