60

 C     -1.1221451069     4.5613518872     0.7473668995
C     -0.2466874342     4.6950907019     -0.4337050901
C     -0.9062183092     4.0916966368     -1.5069928044
C     -2.2744165691     3.7676808772     0.4136699304
C     -2.1481031483     3.4953465828     -0.9600574572
C     -2.2796294987     2.6211420774     1.3023100628
C     -0.3933495856     3.9145557113     1.7464721752
C     -1.0954501822     2.709295249     2.1533635663
C     1.0769103662     4.2583869563     -0.0721981006
C     1.0038294996     3.8231386982     1.3410990291
C     1.7794449527     3.4379151882     -0.9687907137
C     -0.2710849306     3.0724388342     -2.2873683942
C     1.0944042384     2.8325949054     -2.1110855772
C     -2.2697502572     2.1823756774     -1.4722808375
C     -1.149520142     1.9024567838     -2.3585424981
C     -2.6180236052     1.349354874     0.8275353429
C     -2.7084353209     1.1401712105     -0.6347484148
C     -2.1985764125     0.1968075962     1.6127120161
C     -0.3701700277     1.5418014733     2.5376471696
C     -0.9841880377     0.2339391591     2.3949793582
C     1.7161406146     2.726009637     1.7606194824
C     1.0589908914     1.6142931853     2.4770706738
C     2.7070274602     2.4406158456     -0.4681699961
C     2.7156417947     2.1224126364     0.9017197662
C     1.6146652422     1.4927154838     -2.2984463109
C     2.7432379087     1.343030244     -1.4104463855
C     -0.6632787641     0.5841627247     -2.5169107735
C     0.7815466781     0.364067609     -2.5710227897
C     -2.5574178448     -0.18103124     -1.1345887954
C     -1.5188893488     -0.515332106     -2.0903561927
C     -2.6719139549     -1.037669255     1.1709674501
C     -3.0038824209     -1.1929537412     -0.2455268629
C     -2.1828618969     -2.2871759688     1.6646008144
C     -0.2094926892     -0.9961655079     2.4840766224
C     -0.8548189523     -2.3001334357     2.2325141594
C     1.8026041477     0.4312802207     2.2795269202
C     2.8688594491     0.7544373786     1.3157059704
C     1.2305796379     -0.8726924894     2.337514068
C     3.1207030448     0.0792612753     -1.0088358134
C     3.2541360935     -0.2162354168     0.4137517273
C     1.2890384551     -0.980380306     -2.3077559324
C     2.5191430808     -1.0743851001     -1.6005692354
C     -1.0656398113     -1.8981116609     -2.1849801348
C     0.3807901178     -2.1465514415     -2.2720856935
C     -2.820217871     -2.5152300188     -0.5632353777
C     -2.5499026974     -3.2780770722     0.677633189
C     -1.8939658772     -2.918104568     -1.5803086886
C     -1.7193958011     -4.3166224697     0.3634184138
C     -1.3413566031     -4.1537051287     -1.1067653909
C     -0.0384685052     -3.4565808889     1.9422634085
C     -0.5281855583     -4.5310764195     1.1018997541
C     1.9611584016     -1.9655389279     1.6903987778
C     2.8738909375     -1.5784643233     0.6317186439
C     2.7008316521     -2.1665300946     -0.6678522279
C     1.3601918282     -3.2303995201     1.5726056064
C     0.8890736245     -3.3919910012     -1.7601034465
C     0.0062440398     -4.4036471379     -1.211699316
C     0.4964422455     -4.8047887491     0.1241621968
C     1.9837099669     -3.3242322342     -0.8116326099
C     1.6262006951     -4.0460208977     0.3977386662


