60

 C     0.8758205363     -4.1969773787     0.8332188688
C     0.2793787295     -4.2550123406     -0.4277009502
C     -1.1620080595     -3.9797729964     -0.2671936078
C     -0.1263828322     -3.6416973524     1.7596240905
C     -1.3484230022     -3.4731703065     1.076538664
C     0.4887001519     -2.5486137941     2.4701632766
C     2.0614266441     -3.4685989222     0.9879680273
C     1.8660721578     -2.5373966165     2.1086653883
C     2.6180864805     -2.7281728338     -0.08389528
C     0.7735678313     -3.4905958794     -1.5242436665
C     1.9458975861     -2.6633269419     -1.3667117347
C     -1.6015222007     -3.2423552717     -1.3566496079
C     -0.4132896106     -2.9476355349     -2.1911448375
C     -2.5810879071     -2.2429810056     -1.1622658408
C     -2.1267092806     -2.2848213482     1.2941150755
C     -2.9093134182     -1.8368497945     0.1909049304
C     -0.1985181676     -1.3109597632     2.6627649601
C     -1.6090436087     -1.2615497498     2.2391014373
C     0.5815096343     -0.0745935461     2.723215
C     2.5207165315     -1.333265379     1.8423407213
C     3.1109530833     -1.4838283033     0.507781202
C     1.9517869497     -0.0932296274     2.2344558959
C     3.3022009731     -0.3680892164     -0.2497927609
C     1.9970627529     -1.3810969869     -2.1030499412
C     2.8096436437     -0.3051163289     -1.6151348
C     -0.3656328041     -1.7450539286     -2.8472572405
C     0.862510925     -0.9733763073     -2.8624160639
C     -2.5637759973     -1.0459202289     -1.9465126972
C     -1.4801514923     -0.7974172112     -2.8011803949
C     -3.3801822109     -0.478352823     0.1340714984
C     -3.1277852391     0.0587127209     -1.1722096943
C     -2.2491679812     -0.0199965636     2.2749338838
C     -3.2334570529     0.3364812638     1.2558501676
C     -0.1242350702     1.2108071755     2.782362445
C     -1.5566874937     1.1999434162     2.6646318409
C     0.5408542719     2.4160965094     2.425554084
C     2.5061970724     1.1085016757     1.5992275696
C     3.1773422132     0.9395477962     0.3495673856
C     1.8832749413     2.365778449     1.8302845027
C     2.5288726995     1.0689986499     -1.8832680964
C     2.9450409838     1.8688266884     -0.7264695902
C     0.4981867442     0.4098119249     -3.0102123635
C     -0.9458841215     0.517059198     -2.9029374972
C     1.3429689007     1.4554909721     -2.5784359641
C     -2.6972154159     1.4045490678     -1.3445735054
C     -1.5641368882     1.6521386526     -2.2562020561
C     -3.1294248058     1.7175098685     1.0475949562
C     -2.2151248713     2.2939018284     2.0418809867
C     -2.848431659     2.2827167169     -0.2131511412
C     -0.1652425083     3.5299602852     1.8113050732
C     -1.5250510511     3.3598949085     1.4672524417
C     -1.9229864539     3.3890158212     0.0293194711
C     1.990615654     3.4042307669     0.8817000041
C     2.3897204617     3.1113348375     -0.460705034
C     0.704593356     4.0972411396     0.8360029891
C     0.7097354403     2.7081754366     -2.2278036444
C     -0.7403179407     2.7719357269     -2.0286810857
C     -0.9778827546     3.7155334763     -0.9242403204
C     1.3190988829     3.5963445706     -1.3245484161
C     0.3072355666     4.2192848374     -0.5038091049


