60

 C     0.9625340625     4.3650962197     0.0243329238
C     -0.3830843859     4.4714105946     0.2777632118
C     -1.1368573944     3.9280324567     -0.9056858513
C     1.0905292973     3.8746007552     -1.3800176921
C     -0.2140252527     3.4217320583     -1.8400404207
C     2.1558889783     3.03684925     -1.4371079504
C     1.7978626405     3.5215791765     0.8467239037
C     2.7015738228     2.8910492481     -0.0679215217
C     1.1903143709     2.7027504506     1.8977538175
C     -0.9494009279     3.8971978278     1.4283600885
C     -0.1923157026     2.948442772     2.1989486945
C     -2.2216252529     3.1585059774     -0.4219969399
C     -2.1662370053     3.2305596889     1.0151781711
C     -2.5476359286     1.9213361313     -1.0696159574
C     -0.3739561275     2.0799232592     -2.3762751956
C     -1.6518673709     1.4191338732     -2.1263572471
C     2.0588369006     1.7227577978     -2.0169655151
C     0.8106586671     1.2353659841     -2.5464011796
C     3.0809623142     1.5796282408     0.0763585787
C     2.8374039976     0.8653864529     -1.1986847337
C     1.6900186593     1.3440470457     2.1165645234
C     2.7773122471     0.8641270764     1.280552102
C     0.8182362484     0.3038123721     2.695282331
C     -1.0821953792     1.8205737501     2.4875556423
C     -2.3180494969     2.0518582099     1.7668742787
C     -0.6236151479     0.5077669451     2.6928322289
C     -3.1997441862     0.9483329048     -0.2593654048
C     -2.9717289101     0.9765779073     1.1792817073
C     -3.2875027805     -0.4215913057     -0.6445950855
C     -1.7591007621     0.0523602859     -2.4737760677
C     -2.683280878     -0.8505346482     -1.8288296625
C     0.6880806091     -0.2098437081     -2.6785335403
C     -0.6079853473     -0.7395295508     -2.8537179367
C     2.730633836     -0.5388478608     -1.2446899994
C     1.728635321     -1.1221238018     -2.1470623247
C     3.0723058531     -0.508666388     1.2124765063
C     3.1511235809     -1.2303465362     -0.0851806622
C     1.2723713693     -1.0369831086     2.7310280436
C     2.504302333     -1.3936632144     2.1260683193
C     0.3776757036     -2.1889389697     2.548253448
C     -1.519342171     -0.627775763     2.3645160648
C     -2.6913969337     -0.3485223173     1.6147443211
C     -3.1230871432     -1.2446350589     0.5457222553
C     -0.9906659108     -1.994933311     2.2853745726
C     -2.6507945061     -2.5209999404     0.4572568916
C     -1.6512082081     -2.9801513859     1.4243573098
C     -2.1800875198     -2.2046815141     -1.9324124489
C     -0.9020736505     -2.1357436055     -2.6198881037
C     -2.322345124     -3.0936629477     -0.8509459655
C     1.4452572922     -2.4905621773     -1.9969982647
C     0.1263741439     -3.0288692551     -2.2965731743
C     2.7553598703     -2.582433017     0.1339018307
C     2.3662321043     -2.6992424782     1.5084676351
C     1.1257295911     -3.2574395561     1.8595116042
C     1.9843970115     -3.2529579892     -0.8510255006
C     -0.9319999099     -4.0226999797     0.8195019832
C     -1.3129267902     -4.0668739321     -0.612626562
C     -0.1373463434     -4.0782177022     -1.3527520266
C     0.4844679234     -4.1080312799     0.925431379
C     0.9984034979     -4.1612922097     -0.4249316329


