60

 C     1.3524378009     -4.1963002305     -0.2403469329
C     2.4463502391     -3.2857036984     -0.3667524674
C     2.518983273     -2.524212358     0.8319719988
C     0.7177826259     -4.0024889742     1.0401014822
C     1.3805841433     -2.9302948989     1.6906304822
C     -0.6986667512     -3.9182541449     0.8387674319
C     0.4004734664     -3.8773102731     -1.2233133254
C     -0.9050324716     -3.7457205349     -0.6062551996
C     2.2848500333     -2.5640323709     -1.5987021045
C     0.9257734286     -2.8358726037     -2.0873839235
C     2.7711073387     -1.2812490784     -1.6564425139
C     2.9347213002     -1.1728425101     0.8057485666
C     3.2976574413     -0.6373073153     -0.4724440195
C     2.402512192     -0.229115389     1.8026934917
C     0.6376634021     -1.9131841381     2.3947158151
C     1.17214656     -0.5450939299     2.4968814145
C     -1.4280784015     -3.1209097383     1.7132436702
C     -0.7596509645     -2.1022026226     2.518214853
C     -2.6053127542     -2.5186129968     1.2097044177
C     -1.8017672598     -2.7794381155     -1.1000383583
C     -2.8085325666     -2.3201661397     -0.159630992
C     0.1040748701     -1.7743645144     -2.5139437826
C     -1.3343557207     -1.8238401788     -2.142623474
C     2.0785161804     -0.2642877973     -2.4159059151
C     0.7307515751     -0.4568477137     -2.8074768395
C     3.2861617831     0.7760996691     -0.7181653792
C     2.5594388889     1.0192391102     -1.9595026473
C     2.7708806016     1.1454762003     1.6395132158
C     3.1852119488     1.6667670898     0.3284079249
C     2.0481302793     2.1544547503     2.2838283995
C     0.2650140604     0.5560887795     2.851323245
C     0.7623239515     1.8832553481     2.8218757594
C     -1.6586626754     -0.9461322483     2.607787988
C     -2.8251753027     -1.2336238735     1.8811186463
C     -1.1766147659     0.3858292711     2.6690764641
C     -3.427739502     -1.0099503904     -0.3035652693
C     -3.3862022989     -0.3076291844     0.9849169525
C     -2.0850527821     -0.6634697923     -2.3438630859
C     -3.2042894286     -0.2938750566     -1.451278695
C     -0.0874311119     0.7425785689     -2.9449227948
C     -1.5042561207     0.5878250244     -2.8221517462
C     1.7796597907     2.1544469073     -2.0798639962
C     0.4563376024     2.0335556291     -2.6268554933
C     2.5368818701     2.9609083416     0.1352238225
C     1.9493190204     3.3208357552     1.3919953652
C     1.7943636066     3.1874902175     -1.0387043121
C     -0.0991942537     2.9616638416     2.3925822199
C     0.6598560975     3.819960308     1.4643072742
C     -1.9749878152     1.4326970854     2.0262319998
C     -3.0123737972     1.0643113056     1.0706076685
C     -1.3591108062     2.7207256112     1.8667268621
C     -3.2450324333     1.1264988052     -1.371653433
C     -2.2726984106     1.6538263561     -2.3019583858
C     -3.1202288942     1.8248324086     -0.1544658175
C     -0.345876732     3.0613351215     -1.9814447608
C     0.4558053096     3.7372815802     -0.9671316259
C     -0.1287507826     4.0144247812     0.2895810064
C     -1.4561986773     3.4673234857     0.5878337421
C     -1.7015956496     2.8378346171     -1.7676110974
C     -2.2529015514     2.976767341     -0.4112138924


