60

 C     -1.7962915939     -4.1959442613     -0.7457033879
C     -0.4000360563     -4.4938324198     -0.5050431046
C     -0.1395196958     -4.2687509575     0.8539598708
C     -2.345653406     -3.6100902994     0.4892097223
C     -1.3493287635     -3.665521695     1.4635114627
C     -2.9054517752     -2.3200068235     0.2155671776
C     -1.8013674985     -3.1360667628     -1.6565156117
C     -2.6179149725     -2.0413368927     -1.1804168965
C     0.4093004827     -3.7272419902     -1.4551689583
C     -0.4730796988     -2.8170395203     -2.1560813454
C     1.642986357     -3.2371757656     -1.0537252331
C     0.9891665295     -3.5195061397     1.3005246423
C     1.9901544773     -3.1997506535     0.3751570032
C     -0.9325469294     -2.4958090769     2.1780112779
C     0.5128403661     -2.4294028801     2.1516044486
C     -2.7384641269     -1.2305980909     1.1146410765
C     -1.6683162459     -1.2894796161     2.1004457192
C     -3.1340107341     0.0461856998     0.5994293349
C     -2.3748238194     -0.7416638957     -1.6116572901
C     -3.0409421395     0.2819471854     -0.8249029546
C     -0.1089203258     -1.4648823798     -2.4174149651
C     -1.1324607406     -0.4143014073     -2.309817521
C     2.1357017047     -2.0090046715     -1.6027011526
C     1.2846967834     -1.0694252191     -2.265303702
C     2.8334643808     -2.0814420819     0.6093027446
C     3.1449587084     -1.513868556     -0.6855874383
C     1.2226688446     -1.1977626965     2.264251934
C     2.5447037582     -1.1319216181     1.6487126836
C     -0.9836385478     -0.0456557934     2.4403355451
C     0.4668585069     0.0302745402     2.4944553085
C     -2.9243217465     1.1762217232     1.4442699494
C     -1.7161294474     1.1446488097     2.2581024146
C     -3.1202730294     2.4821050968     0.9666087658
C     -2.9441432545     1.5928833057     -1.300715595
C     -3.2209203497     2.7198984362     -0.4230422173
C     -0.766037181     0.9699867437     -2.3991454921
C     -1.7917823292     1.9371909929     -2.0996055642
C     1.6714460178     0.353567479     -2.2616559265
C     0.6543152162     1.3751684775     -2.3453618719
C     3.6394514447     -0.2511429321     -0.8078904203
C     2.9671138577     0.7006088487     -1.7182764087
C     3.180649806     0.1336685371     1.5536650752
C     3.976714716     0.4604605333     0.391555377
C     1.1190097775     1.3347852628     2.3035581349
C     2.4859570896     1.3422108997     1.9212102261
C     -1.0879070804     2.4466591115     2.1533730199
C     -1.9914501752     3.310505659     1.4423359607
C     0.3155062974     2.5315628138     2.0075636336
C     -2.3879428184     3.8302592507     -0.7883582478
C     -1.4671677472     3.298796307     -1.7286375357
C     -1.5635065806     4.1150820789     0.3800317286
C     0.9444695252     2.6864578502     -1.7755664822
C     0.7798151533     3.4451247642     0.9547707086
C     -0.1165571177     3.5284033651     -1.3291700459
C     -0.1715431359     3.9930970998     0.0394281486
C     3.2151822132     1.9745059188     -1.1657103965
C     3.9037905742     1.8471021363     0.1263875094
C     3.0032750341     2.4085427528     1.0505451427
C     2.1424707618     2.8929643784     -1.0508220242
C     2.0357806787     3.2077490383     0.3714721425


