60

 C     4.2306455516     -1.1592249103     -0.4770976505
C     3.646129274     -2.0811365972     0.3477503476
C     2.6343822716     -2.8409733584     -0.4194754837
C     3.5258805125     -1.2882717818     -1.7982229771
C     2.4369133968     -2.2424379482     -1.6846737003
C     3.2727933052     -0.0282546816     -2.235333901
C     4.2498780161     0.2418076241     -0.1054386508
C     3.803465753     0.9604849977     -1.2635724671
C     3.7167673724     0.6214787929     1.1564324066
C     3.0209880095     -1.7096283742     1.6024591091
C     3.0776157841     -0.3694291288     2.0033935416
C     1.550393976     -3.0888531075     0.4188515828
C     1.7610515888     -2.3900996234     1.6868507922
C     0.2600915512     -3.1773364302     -0.1419786069
C     1.0906123351     -1.8941356521     -2.1034244127
C     -0.0182056521     -2.5598289322     -1.4294853405
C     1.9470103206     0.3777798243     -2.6318896027
C     0.8462974505     -0.5580846375     -2.6280807397
C     2.8724970798     1.9870008225     -1.1791955007
C     1.7719813563     1.6880539074     -2.1238851985
C     2.9258849499     1.8369460211     1.2614627391
C     2.5270788662     2.5610113411     0.0948118929
C     1.8993829012     0.2515661494     2.6231662953
C     1.9386219508     1.6484285521     2.3114062467
C     0.6288628171     -1.8076655952     2.3342552334
C     0.6536977195     -0.4156899522     2.7623300468
C     -0.7659728581     -3.2035158977     0.8386429014
C     -0.6137586681     -2.3743781339     2.0193722604
C     -2.0869110694     -3.1535963327     0.4313640123
C     -1.3924903467     -2.1739476523     -1.7235576487
C     -2.4384259258     -2.717262286     -0.8689418473
C     -0.497535228     -0.0034137098     -2.622635541
C     -1.6390058634     -0.900383231     -2.4027371902
C     0.4831284726     2.2403727888     -1.9732997392
C     -0.6532652204     1.4353915478     -2.4248711525
C     1.3001570837     3.2954062151     0.1404254549
C     0.3170010727     3.2236375845     -0.9597111863
C     0.7609745181     2.385087187     2.3359534466
C     0.5601173691     3.3834508763     1.3326221294
C     -0.6169610445     0.3587825049     2.723465395
C     -0.5173341103     1.7473778217     2.5643933943
C     -1.8864905045     -1.6966317687     2.242545375
C     -2.8483679243     -2.364423337     1.4205811466
C     -1.9109764387     -0.285664386     2.3812764601
C     -3.6854515332     -2.0016291094     -0.6884168955
C     -3.8410245025     -1.6843813573     0.7744246063
C     -2.9475376748     -0.3025213524     -2.2844947774
C     -3.9446085923     -0.8689534043     -1.3812906376
C     -1.9400189381     1.9357558916     -2.0830153065
C     -3.0529080563     1.0906410544     -2.1124992103
C     -0.9824687493     3.4542880983     -0.3979102582
C     -0.8455912859     3.4517183711     1.0293720298
C     -1.530209427     2.4718771728     1.7708497591
C     -2.0916178822     2.8401692866     -0.9427564708
C     -2.9997725021     0.4663358155     1.687984782
C     -3.9796315031     -0.2717727543     0.9237867185
C     -4.3348303654     0.1958401534     -0.4065008202
C     -3.8548220084     1.3709525885     -0.8925308443
C     -2.6945577681     1.8301779763     1.2432369761
C     -3.0995510831     2.2617048566     -0.0765434239


