60

 C     1.9938483137     -3.8191468411     -0.1836208836
C     1.2785408034     -3.7769816536     1.0576434307
C     -0.1212603241     -3.7801985168     0.7935441653
C     1.0133565724     -3.7494472512     -1.2660738168
C     -0.2915741454     -3.8890579949     -0.670597703
C     1.3015494234     -2.6478906123     -2.0830979515
C     2.844605489     -2.7234746127     -0.2646005484
C     2.4798850367     -1.987875975     -1.4689928399
C     1.8623586056     -2.7229960416     1.8491180001
C     2.8320947122     -2.0207756199     1.01370449
C     1.0205752023     -1.9689716564     2.641924486
C     -1.0214513916     -2.9358472113     1.5455470012
C     -0.4265563607     -2.1461027267     2.5758778204
C     -2.2487751656     -2.4247157132     0.9036494675
C     -1.3434807354     -3.2653871499     -1.2895883972
C     -2.4392791981     -2.6844970316     -0.5057083469
C     0.2275163359     -1.8583615365     -2.6327753124
C     -1.0867721528     -2.3690878175     -2.4160902306
C     0.4098910281     -0.423491727     -2.8084819256
C     2.5883255842     -0.622074406     -1.4921921933
C     1.699736434     0.1559742862     -2.4066883896
C     2.9087067735     -0.6266706707     1.0315824626
C     3.093512699     0.0524658068     -0.266229287
C     1.2922119583     -0.5724477174     2.8733178476
C     2.2382632622     0.1361685852     2.0936274573
C     -1.0206992176     -0.9146740697     3.0175589226
C     0.0454209871     0.0516525544     3.2670296733
C     -2.8441508433     -1.2248475933     1.4063900015
C     -2.2256552826     -0.478620048     2.4798184927
C     -3.4869783342     -0.2476349354     0.5355389917
C     -3.0617253228     -1.726383424     -1.3216169078
C     -2.1798911945     -1.4771777051     -2.4605601075
C     -3.5142232027     -0.4745899625     -0.8442702569
C     -0.7352853366     0.4658860273     -2.865530944
C     -2.0370847706     -0.1011401083     -2.6518052331
C     -2.9915897299     0.5556271265     -1.7445194336
C     -0.5750722207     1.8968481719     -2.5744977053
C     1.874619598     1.5289291564     -2.4304259392
C     0.7349140221     2.4387560053     -2.5403704476
C     3.171675147     1.4240374228     -0.2821527679
C     2.8294793424     2.1467547228     -1.5049643886
C     2.0844875823     1.5863339364     1.9571886532
C     2.7455182252     2.2394140374     0.871242495
C     -0.1554453574     1.3950082759     3.0449542106
C     0.8921945669     2.2037094198     2.4569336346
C     -2.4476467704     0.9460535387     2.2604925919
C     -3.203504395     1.082427089     1.0376334241
C     -1.4479823278     1.8701235666     2.5610370003
C     -2.7104905837     1.8090338687     -1.2623403324
C     -1.5665151195     2.548006375     -1.7605844522
C     -2.8902030671     2.1228016006     0.1517983329
C     0.246495284     3.2613882685     1.7181296564
C     -1.1902172359     2.9967726875     1.6963772609
C     -1.1704216647     3.4693606536     -0.7298225721
C     -1.8954802714     3.1077530339     0.4905792183
C     1.0351641544     3.5724954188     -1.7185820922
C     2.3456130682     3.3846964155     -1.1449526863
C     2.210917728     3.428716393     0.317315822
C     0.1436706744     3.9414795034     -0.6725852074
C     0.884263508     3.8418942816     0.6147643891


