60

 C     1.4456505865     4.4434245787     -0.8304186768
C     0.0924169987     4.6659435369     -0.5649641149
C     -0.1243564354     4.4921324766     0.8579920222
C     2.0636108408     3.927526309     0.3967128312
C     1.1152660297     3.9577069451     1.4301067157
C     2.6668994684     2.6725168384     0.1052391123
C     1.5182959647     3.3561625243     -1.7793413357
C     2.4052792852     2.3523794313     -1.2984340957
C     -0.6958893226     3.838103527     -1.4989446399
C     0.2319666049     2.9608502871     -2.2431274124
C     -1.8745924384     3.3068623023     -1.0551157566
C     -1.1917298156     3.7161229109     1.313959004
C     -2.2174179163     3.3625713356     0.3945539326
C     0.7784193221     2.7677220396     2.1752139957
C     -0.6613459821     2.6446574002     2.195464613
C     2.6047903624     1.6011428078     1.0497508282
C     1.5630601834     1.5899645083     2.0825012611
C     3.0087785009     0.3715805158     0.5218137469
C     2.2283403824     1.0149354861     -1.7055420768
C     2.8909802397     0.0845748597     -0.8714588777
C     -0.062976019     1.5663543268     -2.4677471417
C     1.0089543788     0.5797959727     -2.3708703496
C     -2.3232478228     2.0071331805     -1.5619406407
C     -1.4292486139     1.1045117387     -2.2374407228
C     -2.9391970217     2.2127751445     0.6626440571
C     -3.2044644354     1.4916806861     -0.5856878293
C     -1.2846091332     1.3784045966     2.307261302
C     -2.5657436236     1.2327716712     1.6353862948
C     0.9592858821     0.2994932986     2.414739278
C     -0.4692766351     0.1833649691     2.52422226
C     2.7868204778     -0.8670968931     1.2208207665
C     1.7374578433     -0.9231336301     2.179940203
C     2.7203162572     -1.3182093064     -1.0244359976
C     2.948450163     -1.9402748355     0.2809401107
C     0.7226482174     -0.8454425742     -2.4055148932
C     1.7243334705     -1.8123035868     -1.8931929727
C     -1.6963288585     -0.3211262324     -2.1533310628
C     -0.6564624643     -1.2877525172     -2.4701745047
C     -3.280399923     0.1400154262     -0.3234657142
C     -2.9205944254     -0.03957927     1.1088279861
C     -2.7386064144     -0.7729413847     -1.2376642473
C     -1.0932766515     -1.1493569426     2.3516508846
C     -2.3202556856     -1.2307856199     1.5444597885
C     1.1299204302     -2.2081235724     2.3771831993
C     -0.3254299355     -2.3167147484     2.4297474071
C     2.4349961726     -3.1945900708     0.5653121131
C     1.6294264289     -3.3636394695     1.739435038
C     1.3653557206     -3.2043172266     -1.6859991639
C     1.8039573817     -3.9114414297     -0.503046101
C     -0.9494899564     -2.6977990511     -2.2684731649
C     0.0639707534     -3.6495792053     -2.0104880895
C     -2.7284536852     -2.1043788433     -0.7470166041
C     -2.5257111066     -2.3599073813     0.7043059609
C     -2.0709521245     -3.0864615433     -1.4370327627
C     -0.7031888274     -3.5779604619     1.7689792567
C     0.5030853719     -4.2333375625     1.3788697157
C     0.6877525874     -4.6597863834     0.0366170563
C     -0.3762619763     -4.5553915074     -0.9014941171
C     -1.8007779163     -3.5762230536     0.8556171007
C     -1.6102012404     -4.1155274282     -0.4779047757


