60

 C     1.4647395659     3.9960891928     0.4332434597
C     2.5070548972     3.0658262766     0.1323219282
C     2.3238104293     2.5084891639     -1.1714997077
C     0.5091108672     3.8709614515     -0.6111831936
C     1.0251452197     2.9942761713     -1.6283114149
C     -0.7726748005     3.509026443     -0.0794278003
C     0.8144282918     3.4663415197     1.5948466236
C     -0.5933970626     3.2719352455     1.3452880359
C     2.6651457381     2.1266369971     1.1944569769
C     1.5300163038     2.3761030623     2.1301884666
C     3.1122629175     0.8199300315     0.9455476683
C     2.7574467129     1.1910514781     -1.4808504349
C     3.2506904463     0.3077817561     -0.4241628809
C     2.1125438978     0.6203458962     -2.6222791921
C     0.1542926741     2.176114277     -2.4204757549
C     0.7815178033     1.0944736446     -3.058818595
C     -1.7211915407     2.7461580444     -0.8390308983
C     -1.285462494     2.0967869724     -2.0839444896
C     -2.7611690137     2.1772189412     -0.0869032819
C     -1.3257525823     2.259191514     1.9932569728
C     -2.5814260367     1.9635492378     1.3698672795
C     0.836366715     1.2843531327     2.7312965944
C     -0.6264015785     1.2026077462     2.7264396009
C     2.806792851     -0.1126070278     2.0039038137
C     1.582094143     0.0933511408     2.8391936764
C     3.0137037291     -1.4614628196     1.8545312556
C     3.2218751753     -1.1457568074     -0.6253123679
C     3.1491745431     -2.0197927215     0.518102495
C     2.1371634597     -0.7576653885     -2.8157012326
C     2.5960230855     -1.6518760525     -1.8202072177
C     0.0187161055     -0.0658368193     -3.4799962761
C     0.8461558364     -1.2054361681     -3.3411418143
C     -2.0002852973     0.9489674336     -2.4937688727
C     -1.31918768     -0.166388812     -3.1189771278
C     -3.5580579352     1.079311282     -0.5787487599
C     -3.1116477465     0.4129295092     -1.7269246806
C     -3.2938080156     0.8393543792     1.7384914605
C     -3.9871346485     0.3100348647     0.5581022079
C     -1.2566858378     -0.1041448738     2.84537874
C     -2.6292768434     -0.2455277532     2.4285673649
C     0.9802573814     -1.1692390253     3.0325277957
C     1.9153024482     -2.1532238515     2.538601342
C     -0.4325850414     -1.3214289416     2.8439835874
C     2.2971534815     -3.1584828719     0.4889011888
C     1.4931707366     -3.1609644867     1.7118522161
C     1.597165217     -2.7159135667     -1.7707188166
C     0.4477923711     -2.3201804867     -2.5999024406
C     1.3870624006     -3.3760115373     -0.577005459
C     -1.8059333301     -1.3879259097     -2.5055115108
C     -2.9698571491     -1.0418299212     -1.7121667399
C     -0.9062522138     -2.4213828086     -2.1078333483
C     -3.8195511746     -1.0577423699     0.574177849
C     -3.0608999004     -1.4316738946     1.7762788432
C     -3.2545803362     -1.7619719798     -0.5475989463
C     -0.8688815107     -2.476563874     2.0547526383
C     0.1026303892     -3.2853440057     1.3752094712
C     0.0125996028     -3.4921146132     -0.0373970457
C     -1.1180610911     -3.0443581695     -0.7879643001
C     -2.1330877776     -2.4164420432     1.4035722398
C     -2.2561567979     -2.6799073041     -0.029117391


