60

 C     -1.2508813521     -3.9992501682     0.4813472801
C     -0.6831114287     -3.7489591771     1.7196731115
C     0.7679028391     -3.7295630069     1.5458686582
C     -0.1737203697     -4.1719876968     -0.4991120305
C     1.0767196741     -3.9099004092     0.1412497873
C     -0.5397215877     -3.5039268069     -1.6818135453
C     -2.2292542445     -3.1100423652     -0.0857188355
C     -1.812944896     -2.7783784262     -1.4352371219
C     -2.7450689063     -2.0909158587     0.7145805991
C     -1.0678211616     -2.5840608953     2.4784519165
C     -2.1638049288     -1.8319389421     2.0438685729
C     1.2528404479     -2.6180787479     2.2377168444
C     0.1280387433     -1.8722441712     2.8575862157
C     2.3161627949     -1.8760207596     1.6871924061
C     2.0125669869     -3.0093284819     -0.5017494114
C     2.6982523829     -2.0583847295     0.327157632
C     0.4604680022     -2.8743399528     -2.440589787
C     1.7321867787     -2.5725342961     -1.8275774585
C     0.0865439375     -1.7459921979     -3.2255752006
C     -2.0436217123     -1.4844995067     -1.9839824264
C     -1.0840665996     -1.0253947194     -2.9611199468
C     -3.0943809105     -0.8255286717     0.1349678772
C     -2.7471764068     -0.4643034811     -1.1953408113
C     -2.180416248     -0.4216713493     2.26409379
C     -2.9803843218     0.1561380448     1.1877981811
C     0.1669406955     -0.4647315312     2.9796932061
C     -1.0681075932     0.3010737954     2.76472324
C     2.4804463567     -0.4933727206     2.049716066
C     1.4495123131     0.215045627     2.729824997
C     3.1497578497     -0.7498666613     -0.1600238553
C     3.1847924011     0.1398899345     0.9609516175
C     2.1308527348     -1.219490519     -2.2909148039
C     1.1690286272     -0.7864215094     -3.1998348447
C     2.7685788887     -0.2584920675     -1.4271219347
C     -0.7800720418     0.4118473619     -3.082711764
C     0.641432508     0.5418758956     -3.1693746467
C     -2.5944002891     0.971863707     -1.5009580997
C     -1.5588658232     1.3993193505     -2.4586835407
C     -2.9356399104     1.4765434211     0.8977669322
C     -2.9242149248     1.910637987     -0.4834317532
C     -1.0213326467     1.7578443843     2.5026220685
C     -2.0733558579     2.3639946512     1.6861767322
C     1.4588532861     1.6407229773     2.5961542445
C     0.2150042549     2.4294104431     2.5179702755
C     3.0912667555     1.5088284585     0.7737573182
C     2.3958394395     2.2635675573     1.7565713963
C     2.4552555089     1.1896950768     -1.5918949752
C     1.3320919599     1.5758775182     -2.4877595853
C     2.7548487654     2.0604173009     -0.526709424
C     -0.892771354     2.6699632681     -2.2887643921
C     0.5520739918     2.7218334671     -2.2125295676
C     -2.3632626184     3.226124788     -0.4517336306
C     -1.8500015323     3.5030784965     0.9147324374
C     -1.3911819052     3.6168771891     -1.3479104976
C     0.4658890559     3.5961884365     1.6644752922
C     1.7633437896     3.4025422301     1.1129108477
C     1.9806290638     3.2962335304     -0.2823159619
C     0.918643791     3.6516449466     -1.1403362868
C     -0.5454172196     4.0857236506     0.8073868553
C     -0.2617660336     4.194816531     -0.5961602594


