60

 C     0.7272696267     -4.86228105     -0.5299430516
C     1.8552766349     -4.0231674515     -0.3276915583
C     1.9722790532     -3.6541716996     1.0444995526
C     -0.051352104     -4.7513346921     0.7054831783
C     0.6981351288     -4.0353238968     1.6808457706
C     -1.3555748824     -4.2874927466     0.3998182849
C     -0.0615430217     -4.2168673907     -1.5460194345
C     -1.3659883829     -4.0050314302     -1.0452256763
C     1.8702131868     -2.9494786928     -1.316609228
C     0.6314859758     -3.0474191133     -2.0680893574
C     2.3738697906     -1.6834329072     -1.0002921868
C     2.2545980163     -2.3261052739     1.3719103586
C     2.6721055923     -1.3750293737     0.3951698019
C     0.1755812852     -2.8714387416     2.2969047056
C     1.2276966718     -1.852706152     2.2867039672
C     -1.9107464814     -3.1497284165     1.0365156214
C     -1.1701077558     -2.4036229868     2.0270959006
C     -2.0467118901     -2.7955468361     -1.2827769519
C     -2.5353924855     -2.3354269639     -0.0081026011
C     -0.0718133895     -1.8586721698     -2.4638160509
C     -1.497675878     -1.800102552     -2.1616785431
C     1.9577537368     -0.5732870343     -1.8574576461
C     0.6611149912     -0.6079128277     -2.5229927127
C     2.524568525     0.6603145587     -1.5830083616
C     2.704410964     -0.0095771588     0.7991352518
C     3.0573917908     0.9236432656     -0.2223581047
C     0.9732398652     -0.5001410098     2.4769231196
C     1.9001513937     0.4776782024     1.9018136002
C     -1.4605023934     -0.9916780013     2.2272498649
C     -0.4074191604     -0.1014721376     2.7006275544
C     -2.8908470341     -0.9994761268     0.2074816682
C     -2.5442377776     -0.3662144513     1.4778069267
C     -2.0865742804     -0.5307394484     -2.0684700378
C     -2.9176456553     -0.1700567001     -0.9471043241
C     -0.0181139931     0.6756443907     -2.7245296451
C     -1.4236253386     0.6643558236     -2.5048913411
C     2.0346879278     1.9098567592     -2.0959458724
C     0.6791729028     1.9612878734     -2.5682503118
C     3.0456374295     2.2795588509     -0.0101164444
C     2.5483353318     2.9290991237     -1.2293058482
C     1.6349041086     1.9073771255     2.0111203802
C     2.315082922     2.83670268     1.1098704944
C     -0.6546484965     1.2825160411     2.806054032
C     0.3630592119     2.3017071696     2.5097368194
C     -2.7451206931     1.0276980122     1.5706703045
C     -1.8918793276     1.8004222724     2.3898245814
C     -2.9576503845     1.2631310312     -0.8484888204
C     -2.0974848334     1.8012339339     -1.9092698426
C     -2.9997283492     1.8632780616     0.3923557933
C     -0.0785103557     3.1493347674     -2.2179905578
C     -1.4577400534     3.0024725045     -1.7608305505
C     1.7793641181     4.0152252957     -0.8451068676
C     1.6606136091     4.0043184596     0.642504781
C     0.492487057     4.1564858027     -1.3854697673
C     -0.3143012102     3.4836852754     1.9908019134
C     -1.686138726     3.1321912568     1.8372512022
C     -2.3205815933     3.1641864084     0.5766259265
C     -1.6451705926     3.7749467954     -0.5151095382
C     0.3012129311     4.2552085943     0.9682732101
C     -0.4268737589     4.4313748973     -0.2741331315


