60

 C     3.4213470439     -2.3882366679     -0.7447097477
C     2.3237906313     -3.2005621864     -0.8944211805
C     1.4468968018     -2.6414864334     -1.93561466
C     3.2955532026     -1.2490793697     -1.6367033192
C     2.063724649     -1.3701978155     -2.3527821162
C     3.4993981173     -0.0907803899     -0.8830817058
C     3.4486459847     -1.8840614178     0.6206503898
C     3.5576790652     -0.5032103732     0.5604828328
C     1.7662205987     -3.461045036     0.4299577999
C     2.3512367023     -2.4987859822     1.3602448215
C     0.4436526943     -3.7482631637     0.4991738117
C     0.0655687974     -2.7789806251     -1.8215442507
C     -0.4100288661     -3.6259271313     -0.7166023557
C     -0.8188195851     -1.7100221719     -2.3254658367
C     1.255557428     -0.2417058523     -2.6035260169
C     -0.1866006368     -0.4723392096     -2.7776448785
C     2.8423255744     1.1017406455     -1.2390410155
C     1.7433684363     1.0781819337     -2.1770127355
C     2.8661855271     2.1122759681     -0.2092882721
C     2.8842693761     0.3068545105     1.5250086359
C     2.8159628781     1.6760419313     1.2054067343
C     1.4956612046     -1.7242394782     2.1843562098
C     1.8441622125     -0.299688546     2.3723010651
C     -0.3473082537     -3.3030655307     1.6230555856
C     0.0916269441     -2.1642227287     2.3613771696
C     -1.7069433082     -3.546957892     -0.2813886675
C     -1.7079623624     -3.4324900275     1.2019362188
C     -2.2132932281     -1.6861845361     -1.8812713029
C     -2.636740531     -2.5869247929     -0.824418673
C     -2.9231911646     -0.4513667541     -1.9274874923
C     -0.9893199446     0.6886171451     -2.924543078
C     -2.349810955     0.649405151     -2.5822008393
C     0.8466271109     2.2484483208     -2.2075847517
C     -0.4838523893     2.0342177859     -2.6039881301
C     2.1589907652     3.2888345895     -0.3502537868
C     1.105196127     3.3838650941     -1.3319840929
C     1.9160127429     2.5749537715     1.8724811954
C     1.6096393565     3.6508179506     0.962470041
C     0.8539858586     0.578816452     2.8604677886
C     0.8851350502     2.0085598125     2.6282109425
C     -0.935667202     -1.1651730493     2.6995487006
C     -0.5320031085     0.1665353673     2.9240753273
C     -2.6478886475     -2.4899337284     1.5125483851
C     -3.3405819961     -2.0613401335     0.2781455747
C     -2.2938004001     -1.3148344545     2.2404687614
C     -3.5857952695     0.1045770664     -0.7342209217
C     -3.619771074     -0.6785822697     0.4071568016
C     -2.994028653     -0.1984182959     1.6418052071
C     -2.6699526166     1.8801232193     -1.8683753013
C     -1.5782591039     2.7496599831     -1.9516129882
C     -3.2576680233     1.5108408326     -0.6356546035
C     0.014843062     4.0278575916     -0.6734792783
C     0.3087708668     4.0583124247     0.7637766818
C     -1.2994770372     3.5594093482     -0.8311530711
C     -0.4914201812     2.4507208013     2.4108170344
C     -1.3419738353     1.2939604634     2.5380597169
C     -2.5002086221     1.1260624958     1.7192331818
C     -2.7183614202     2.0609354208     0.5953242534
C     -0.7916740123     3.4238453058     1.4528687866
C     -1.8496319821     3.173634461     0.4756452146


