60

 C     -3.7969411333     -1.3539082262     -0.4893715038
C     -3.1229704857     -1.9370950938     -1.5414073508
C     -2.8933074935     -0.9050234491     -2.5737820551
C     -4.0228573611     0.0717917731     -0.8043409702
C     -3.3737173466     0.3412624529     -2.0484216175
C     -3.7307618533     0.8085628128     0.3503967672
C     -3.3034814274     -1.4618608519     0.8405830507
C     -3.5021853757     -0.1507588762     1.4464919364
C     -2.119345283     -2.2150666296     1.1289408904
C     -1.9086635709     -2.6412750816     -1.3209524466
C     -1.3832438167     -2.8065952718     -0.0035670564
C     -1.5913441707     -1.0512335342     -3.0592420669
C     -1.0182085768     -2.2234070186     -2.3963774878
C     -0.7315994898     0.0968686112     -3.2805859757
C     -2.4933303804     1.4469906292     -2.1281753501
C     -1.2455808858     1.3425198359     -2.8472969126
C     -2.8822644443     1.9898452292     0.2739455239
C     -2.2714209614     2.2772357176     -0.9709025567
C     -2.128788997     2.3359242387     1.4442896897
C     -2.7540220317     0.2282276392     2.5322001447
C     -2.2528609735     1.5850856563     2.6108900084
C     -1.3790265618     -1.8447659211     2.343496149
C     -1.7367190733     -0.6670855801     3.0581770259
C     -0.0102203421     -2.2852287832     2.4697506691
C     0.0776563771     -2.9882179755     0.1001538766
C     0.705233836     -2.7919128436     1.3569980133
C     0.3407043106     -2.3270954094     -2.2617424294
C     0.9072371991     -2.8121884062     -1.0441014608
C     0.7315994898     -0.0968686112     -3.2805859757
C     1.2455808858     -1.3425198359     -2.8472969126
C     1.5913441707     1.0512335342     -3.0592420669
C     -0.3407043106     2.3270954094     -2.2617424294
C     -0.9072371991     2.8121884062     -1.0441014608
C     1.0182085768     2.2234070186     -2.3963774878
C     -0.705233836     2.7919128436     1.3569980133
C     -0.0776563771     2.9882179755     0.1001538766
C     -0.9493633537     1.5207606116     3.2293374788
C     -0.6776247238     0.2008398581     3.5846159165
C     0.0102203421     2.2852287832     2.4697506691
C     0.9493633537     -1.5207606116     3.2293374788
C     0.6776247238     -0.2008398581     3.5846159165
C     2.128788997     -2.3359242387     1.4442896897
C     2.2528609735     -1.5850856563     2.6108900084
C     2.2714209614     -2.2772357176     -0.9709025567
C     2.4933303804     -1.4469906292     -2.1281753501
C     2.8822644443     -1.9898452292     0.2739455239
C     2.8933074935     0.9050234491     -2.5737820551
C     3.3737173466     -0.3412624529     -2.0484216175
C     1.9086635709     2.6412750816     -1.3209524466
C     1.3832438167     2.8065952718     -0.0035670564
C     3.1229704857     1.9370950938     -1.5414073508
C     1.3790265618     1.8447659211     2.343496149
C     1.7367190733     0.6670855801     3.0581770259
C     2.7540220317     -0.2282276392     2.5322001447
C     2.119345283     2.2150666296     1.1289408904
C     3.7307618533     -0.8085628128     0.3503967672
C     4.0228573611     -0.0717917731     -0.8043409702
C     3.7969411333     1.3539082262     -0.4893715038
C     3.5021853757     0.1507588762     1.4464919364
C     3.3034814274     1.4618608519     0.8405830507


