60

 C     -1.323052244     -4.5054327768     -0.6531929342
C     -0.111208368     -4.3370927524     -1.457249849
C     0.9861684752     -4.5379973815     -0.5991777606
C     -0.908312273     -4.3943700225     0.7539587639
C     0.4700672681     -4.4514884601     0.83132353
C     -1.5979371733     -3.2864165833     1.3775531933
C     -2.1526095801     -3.4306679937     -0.8916531927
C     -2.4924656751     -2.7829439865     0.3729238754
C     -0.2054864796     -3.0923032487     -2.185210688
C     -1.5221946879     -2.5546287745     -1.8890514791
C     0.8906221483     -2.1570854397     -2.2503648481
C     2.0674267954     -3.6944019532     -0.6845251599
C     2.0898822936     -2.5660969539     -1.5616864558
C     1.2274320442     -3.435134994     1.5104157601
C     2.3517521542     -3.1627190641     0.672212028
C     -0.8882538798     -2.3207490793     2.1786126927
C     0.5718657229     -2.3145304805     2.1923961348
C     -1.5384025606     -1.0731412263     2.3496153346
C     -2.9044212436     -1.4545350359     0.3540608839
C     -2.6750201923     -0.7065674559     1.5375137733
C     -1.7823426456     -1.1875113215     -1.8852975919
C     -2.7863946878     -0.7122459751     -0.9159960513
C     0.6071986952     -0.7115706765     -2.3782929362
C     -0.7583877426     -0.2390313644     -2.3333552688
C     1.6421692369     0.2732165503     -2.0688566737
C     2.8079904436     -1.5409054109     -0.8662862304
C     2.8681110953     -1.8972250917     0.5621108975
C     2.7345370042     -0.2104371838     -1.2248746843
C     1.254707833     -1.0277143045     2.2690609171
C     2.4908998123     -0.8885289591     1.5143783495
C     -0.8637002997     0.1520574887     2.6593455823
C     0.5373954144     0.2380721357     2.5737905103
C     -2.82780121     0.7026652891     1.5540217263
C     -1.7156594759     1.2787559057     2.2652939079
C     -3.0460504297     0.6286236032     -0.8871620588
C     -3.2898701721     1.3352902211     0.3870349464
C     -1.0580134942     1.1838176397     -2.2983281816
C     -2.3391836336     1.5550833198     -1.7626344705
C     1.3895941163     1.7057147535     -2.1031164664
C     0.014604958     2.193064355     -2.3077803316
C     2.3384676563     2.572965684     -1.4135660512
C     3.2757933771     0.6675388954     -0.2231103935
C     2.9442498748     0.3775114153     1.1856364059
C     3.2052112344     2.0141285945     -0.4179028451
C     1.113313025     1.5773593557     2.3080514037
C     2.426034586     1.5872128753     1.755280161
C     2.8545140727     2.640469674     0.8849049222
C     -1.2145649567     2.5631996134     1.9538098739
C     0.2498791086     2.7633466714     2.0379304446
C     -2.9741981487     2.6727028117     0.2018748766
C     -2.5459631017     2.8456366262     -1.2175327101
C     -2.0158952309     3.3459565809     1.0074771037
C     -0.3115190923     3.539115058     -1.8904018651
C     -1.5785944336     3.8106867808     -1.2833903924
C     -1.3488296262     4.2747788799     0.1222771192
C     1.8883201185     3.8143140142     -0.8455563251
C     2.0760743017     3.7260586451     0.6494724521
C     0.7946953309     3.8596845609     1.2755225725
C     0.6297078726     4.2631280626     -1.0652662511
C     -0.0223533313     4.5113176893     0.2629603037


