60

 C     0.3205854825     -5.1473961636     -0.0112794971
C     -0.4069703443     -4.7408282944     1.0878837569
C     -1.6044882211     -4.0063199889     0.6880258586
C     -0.3901639339     -4.5797100965     -1.1819941024
C     -1.5890429812     -3.8601812837     -0.740443253
C     0.5291089837     -3.8533880328     -1.9164612522
C     1.6066180073     -4.4477469065     0.081871657
C     1.8048468512     -3.7800098727     -1.1262145372
C     0.3564040936     -3.8511801207     1.9503212349
C     1.6088635166     -3.615881631     1.2989991297
C     -1.7528752735     -2.8821605546     1.5410785788
C     -0.4880082601     -2.7420997425     2.2880685722
C     -2.3586853951     -1.7257752443     1.0567819976
C     -1.9006508812     -2.5697026313     -1.2570708403
C     -2.6095913896     -1.6639486392     -0.3760145748
C     0.2560387512     -2.5370807555     -2.390135986
C     -1.0005414436     -1.9097253169     -2.2254843545
C     2.2517341176     -2.4468528829     -1.1841698204
C     1.4317758287     -1.7166990496     -2.1382511383
C     2.0974210973     -2.2798207801     1.2632373042
C     2.6019880854     -1.7310986038     0.0154046735
C     0.0486589487     -1.4576655256     2.4793301837
C     1.4488991045     -1.289142162     2.1326776332
C     -2.1093132516     -0.460307833     1.7635469795
C     -0.8404518644     -0.2881321924     2.414455704
C     -2.7848102709     0.6867401542     1.2741514327
C     -2.9619889019     -0.4079676576     -0.889016076
C     -3.3960754801     0.6232039972     -0.0447710875
C     -1.0561132609     -0.4653418922     -2.4236835973
C     -2.216888741     0.2037602993     -2.0049453513
C     1.3972410861     -0.3263061862     -2.1732951588
C     0.1611455631     0.3533319669     -2.5287304825
C     2.8044752091     -0.3228248563     -0.1282547453
C     2.3802924703     0.3618436678     -1.3523526573
C     1.9252961016     0.0151625051     2.0892741707
C     2.8002000936     0.4721051536     1.0458580705
C     -0.2836943526     1.0584052231     2.5500251717
C     1.1327515522     1.1651381404     2.4883781569
C     -2.3085220108     2.0151841657     1.5004709575
C     -1.0596845471     2.2402236884     2.1569836681
C     -3.0852836166     1.8617952578     -0.6740298008
C     -2.2822377008     1.619575554     -1.8429017137
C     -2.6235266029     2.7903350456     0.2908527519
C     0.1024585983     1.7924975093     -2.4416413682
C     -1.1617895702     2.4726334158     -2.1244390639
C     2.3773595017     1.7470831536     -1.3887202513
C     1.3306867755     2.4853390893     -2.0885897246
C     2.76942166     1.8992443492     1.010239883
C     1.7920226829     2.3516698815     2.0003683256
C     2.778054331     2.5485766477     -0.2354544352
C     -0.3744984175     3.4722040304     1.8568887358
C     1.0702856301     3.5288203166     1.7872591734
C     -1.8117137657     3.821614906     -0.1417585692
C     -1.131398167     3.7323938593     -1.4319913793
C     -0.8498032652     4.3501996394     0.7945037604
C     1.3182318474     3.8061535808     -1.5876059471
C     2.182338326     3.8305607128     -0.3745367803
C     1.4281098913     4.3953870098     0.6606394711
C     0.1087824205     4.4428083362     -1.249727015
C     0.2167153016     4.9613039404     0.1063876679


