60

 C     -1.3977606125     4.4499990732     1.0578695755
C     -0.3154966152     4.8925667897     0.3276656037
C     -0.4220241675     4.4133299607     -1.0559890053
C     -2.2373285369     3.6683886633     0.1690017553
C     -1.6142070334     3.6050958565     -1.1527438105
C     -2.4898635674     2.4533277509     0.8090567876
C     -0.8996704828     3.5521834881     2.1091247917
C     -1.6099390581     2.3566101759     2.0269653875
C     0.9026375501     4.3467926687     0.8933632558
C     0.5523019714     3.4745488297     1.9961307859
C     0.8238132059     3.8461896337     -1.4159597825
C     1.6809714372     3.8388010042     -0.1859825238
C     0.8576515805     2.7111252773     -2.2413380119
C     -1.5645814066     2.3464217437     -1.8380556376
C     -0.3508562562     1.9870105403     -2.5149381846
C     -2.6806026515     1.2762273969     0.0791095052
C     -2.299632944     1.2105705909     -1.3051319422
C     -2.7028959991     0.0531343046     0.8636092832
C     -1.0096753972     1.0884295392     2.3204224744
C     -1.7634534992     -0.0987883965     1.9565150722
C     1.1981501062     2.2070595006     2.1235768025
C     0.4138289879     1.0007507397     2.4648043589
C     2.4878309808     2.7426741556     0.0473569061
C     2.3354506935     1.988104156     1.2721053097
C     1.9092172143     1.7076217868     -2.1072197464
C     2.7490336675     1.7550959456     -0.9981287287
C     0.0030879104     0.5978647448     -2.7628699971
C     1.4018611234     0.4226057219     -2.5525136507
C     -2.1227316658     -0.1202294811     -1.8652676112
C     -0.8930940297     -0.474490936     -2.550165872
C     -3.1730173772     -1.0667814843     0.1951674433
C     -2.8582116216     -1.1628102212     -1.2628798433
C     -2.9860103358     -2.3382598308     0.7596797247
C     -1.2470071211     -1.4110812962     2.2400566816
C     -1.9638209551     -2.541060075     1.7171706507
C     1.0176320137     -0.325737058     2.4114178455
C     0.1980648923     -1.5293532368     2.496741242
C     2.7918222887     0.66859328     1.0276892975
C     3.0941547218     0.5159235346     -0.3787730176
C     2.3097589331     -0.4410901633     1.7672886697
C     1.9180225997     -0.8182469557     -2.0942089904
C     2.8821782944     -0.7349967913     -1.0080781441
C     -0.3546787081     -1.8362426811     -2.4582991294
C     1.0872674862     -2.0127772016     -2.2088552997
C     -2.5387428177     -2.5013036232     -1.5360091576
C     -2.7876297827     -3.2922847824     -0.3329775739
C     -1.2513357982     -2.8642591381     -2.0426979653
C     -1.245618223     -3.7571224461     1.2786268475
C     -1.7389770111     -4.1299868974     -0.0720835423
C     -0.7858940676     -3.9738832802     -1.20029356
C     0.8147359069     -2.8001832953     2.2412886774
C     0.0819138239     -3.8773274646     1.5462352755
C     2.7655345712     -1.6956132385     1.2970049756
C     3.0524848883     -1.8556564251     -0.1587586325
C     2.14648982     -2.865874726     1.7362968791
C     1.5203287132     -3.1919826007     -1.5200618166
C     0.5494437947     -4.1196826584     -0.9494459029
C     0.9622183547     -4.3817416078     0.4592709444
C     2.5950696344     -3.1109680008     -0.5606127926
C     2.2018003762     -3.8472310595     0.6397269631


