60

 C     -4.4413731727     -0.0001280691     1.3774333499
C     -3.5212928848     -0.1844478775     2.4761978264
C     -2.8814024505     1.0307478746     2.7041815428
C     -4.1304948193     1.3097466247     0.7513747195
C     -3.2363535057     1.9647142164     1.5922017393
C     -3.7739531309     1.1213262578     -0.6220241707
C     -4.1441402889     -0.9590012065     0.4253560982
C     -3.9615542849     -0.3241416158     -0.8722046497
C     -2.6621598152     -1.3350894426     2.1748120165
C     -3.0713932571     -1.8557970668     0.9024978943
C     -1.2883982193     -1.3208203041     2.4954568675
C     -1.4915242774     1.1005335295     2.9090878468
C     -0.704112816     -0.0889210332     3.0356198139
C     -2.0224407659     2.4950301508     1.0998146234
C     -0.9640446756     2.1136275819     2.0256984004
C     -2.6192509594     1.7485585826     -1.1831873555
C     -1.7116739612     2.4862638714     -0.2891820652
C     -2.0488837553     1.139457698     -2.3995816768
C     -3.2165150351     -0.984303604     -1.7961692106
C     -2.4194567875     -0.2158460956     -2.755190108
C     -2.1544731792     -2.4093409125     -0.0362578636
C     -2.4436416388     -2.1769520403     -1.4267374746
C     -0.3993866158     -2.1581220992     1.6933761136
C     -0.76271491     -2.6005405407     0.3642757528
C     0.9640446756     -2.1136275819     2.0256984004
C     0.704112816     0.0889210332     3.0356198139
C     1.4915242774     -1.1005335295     2.9090878468
C     0.3993866158     2.1581220992     1.6933761136
C     1.2883982193     1.3208203041     2.4954568675
C     -0.3118757681     2.6811992574     -0.6441494924
C     0.76271491     2.6005405407     0.3642757528
C     -0.784331874     1.5743793286     -2.8393192061
C     0.0419270174     2.4442217297     -1.9950236451
C     0.132084208     0.6902576586     -3.560563455
C     -1.4491442854     -1.0914527548     -3.2624683511
C     -1.3954633157     -2.2290049496     -2.3453257807
C     -0.132084208     -0.6902576586     -3.560563455
C     0.3118757681     -2.6811992574     -0.6441494924
C     -0.0419270174     -2.4442217297     -1.9950236451
C     0.784331874     -1.5743793286     -2.8393192061
C     2.0224407659     -2.4950301508     1.0998146234
C     1.7116739612     -2.4862638714     -0.2891820652
C     2.8814024505     -1.0307478746     2.7041815428
C     3.2363535057     -1.9647142164     1.5922017393
C     2.6621598152     1.3350894426     2.1748120165
C     3.5212928848     0.1844478775     2.4761978264
C     2.1544731792     2.4093409125     -0.0362578636
C     3.0713932571     1.8557970668     0.9024978943
C     1.3954633157     2.2290049496     -2.3453257807
C     1.4491442854     1.0914527548     -3.2624683511
C     2.4436416388     2.1769520403     -1.4267374746
C     2.0488837553     -1.139457698     -2.3995816768
C     2.6192509594     -1.7485585826     -1.1831873555
C     2.4194567875     0.2158460956     -2.755190108
C     3.2165150351     0.984303604     -1.7961692106
C     4.1304948193     -1.3097466247     0.7513747195
C     4.4413731727     0.0001280691     1.3774333499
C     4.1441402889     0.9590012065     0.4253560982
C     3.7739531309     -1.1213262578     -0.6220241707
C     3.9615542849     0.3241416158     -0.8722046497


