60

 C     -5.2884790285     -0.3205657604     0.8623260179
C     -4.5352457043     -0.3459524386     2.0033636749
C     -3.7549285322     0.8877028438     2.1050745558
C     -5.0380914336     0.9687604868     0.1953150241
C     -3.9725312648     1.6823102752     0.9277233212
C     -4.7956683608     0.6681881194     -1.1445132931
C     -4.72855099     -1.3805501188     -0.018540462
C     -4.5463641056     -0.8386245215     -1.2643384326
C     -3.5412902387     -1.4231299828     1.9407133825
C     -3.5720398497     -2.0287304275     0.656847443
C     -2.4457950603     0.5543985771     2.5057293244
C     -2.3166427961     -0.9210380145     2.441884996
C     -1.3486756002     1.2953761753     2.0316570869
C     -2.8004240685     2.2179188468     0.2375341703
C     -1.4785436586     2.1437070589     0.8821102856
C     -3.7673699456     1.2848668285     -1.8369575234
C     -2.7880546754     2.123638211     -1.2043155506
C     -3.3153020862     -1.0084046462     -1.9821794229
C     -3.0055364424     0.2530916512     -2.5629345459
C     -2.3209527428     -2.2385765241     -0.0409006975
C     -2.212872586     -1.7910010498     -1.4292128786
C     -1.1199421579     -1.459672831     1.9752227617
C     -1.0787722937     -2.2076889666     0.7458592973
C     -0.0606765348     0.6980288054     2.2833208217
C     0.0606765348     -0.6980288054     2.2833208217
C     1.1199421579     1.459672831     1.9752227617
C     -0.2240268544     2.3277468295     0.1169338873
C     1.0787722937     2.2076889666     0.7458592973
C     -1.5314972587     1.8742841354     -1.8777922245
C     -1.6958571449     0.6773879765     -2.6843055159
C     -0.2741039661     2.1144123985     -1.2974901139
C     -0.8991794544     -1.521143802     -1.9400156117
C     -0.6554591745     -0.2731313707     -2.628119778
C     0.2240268544     -2.3277468295     0.1169338873
C     0.2741039661     -2.1144123985     -1.2974901139
C     1.3486756002     -1.2953761753     2.0316570869
C     1.4785436586     -2.1437070589     0.8821102856
C     2.3166427961     0.9210380145     2.441884996
C     2.4457950603     -0.5543985771     2.5057293244
C     3.5412902387     1.4231299828     1.9407133825
C     2.3209527428     2.2385765241     -0.0409006975
C     3.5720398497     2.0287304275     0.656847443
C     0.8991794544     1.521143802     -1.9400156117
C     0.6554591745     0.2731313707     -2.628119778
C     2.212872586     1.7910010498     -1.4292128786
C     1.5314972587     -1.8742841354     -1.8777922245
C     1.6958571449     -0.6773879765     -2.6843055159
C     2.8004240685     -2.2179188468     0.2375341703
C     2.7880546754     -2.123638211     -1.2043155506
C     3.7549285322     -0.8877028438     2.1050745558
C     4.5352457043     0.3459524386     2.0033636749
C     3.9725312648     -1.6823102752     0.9277233212
C     4.72855099     1.3805501188     -0.018540462
C     5.2884790285     0.3205657604     0.8623260179
C     5.0380914336     -0.9687604868     0.1953150241
C     3.3153020862     1.0084046462     -1.9821794229
C     3.0055364424     -0.2530916512     -2.5629345459
C     3.7673699456     -1.2848668285     -1.8369575234
C     4.5463641056     0.8386245215     -1.2643384326
C     4.7956683608     -0.6681881194     -1.1445132931


