60

 C     0.8892474577     4.4887791809     -0.9967103923
C     0.6397752049     3.6274863771     -2.1464833068
C     -0.7187194147     3.3722469754     -2.2332786555
C     -0.3394609615     4.4680922295     -0.2075713695
C     -1.358362495     3.9342446061     -1.0057168328
C     -0.0950741453     3.8558923571     1.0922218849
C     1.8292192709     3.7978808475     -0.231502296
C     1.3240301137     3.5470659966     1.1113732631
C     1.5333333188     2.4696247202     -2.1098767196
C     2.365106002     2.6504928575     -0.958302127
C     1.0856929273     1.1520482277     -2.4584507354
C     -1.2130002509     2.0546085203     -2.4153915446
C     -0.334615166     0.9315136172     -2.6579774631
C     -2.2341014654     2.9663051326     -0.4992782496
C     -2.278591588     1.8747152857     -1.4753743604
C     -1.022777979     2.9306708196     1.6693537938
C     -2.2083695258     2.5874886348     0.8821022606
C     -0.4910105619     1.8716632988     2.5645671872
C     1.8033090931     2.4347087091     1.7801711925
C     0.9124564556     1.6318670675     2.6013966375
C     2.8688704613     1.5352452882     -0.2568438123
C     2.7553983429     1.5422987547     1.1731210957
C     1.9038128856     0.0280274522     -2.0156585764
C     2.8558711207     0.2610849398     -0.9463294084
C     1.4470732063     -1.3282280415     -2.302556909
C     -0.8834853489     -0.399324859     -2.5062113795
C     0.0204724356     -1.5455826613     -2.5844129725
C     -2.7609395134     0.5914549713     -1.161025029
C     -2.1866291438     -0.544812909     -1.8694280118
C     -2.9084557402     1.381711473     1.1804104916
C     -3.3047661913     0.4301759044     0.1392162563
C     -1.2813616671     0.7324350563     2.8830319237
C     -2.5843738367     0.6064807941     2.3061723463
C     -0.7487781348     -0.6097084384     2.9769870471
C     1.4454775753     0.3019546551     2.7047996484
C     2.6155660938     0.290292927     1.860236099
C     0.6216626022     -0.8679912638     2.7932775727
C     3.2692521161     -0.8667984592     -0.175107961
C     2.9901054155     -0.8786338917     1.2559398987
C     2.2106247344     -2.4240623631     -1.7472808127
C     3.0612310882     -2.1512055155     -0.6514496043
C     1.5670170298     -3.6847803714     -1.4208136404
C     -0.5389287976     -2.851857031     -2.3335672237
C     0.262530101     -3.8977970506     -1.7117349443
C     -2.5655189066     -1.8240712704     -1.3860944788
C     -1.8040418994     -2.9450383794     -1.7164837288
C     -3.3813066133     -0.8840619753     0.736562329
C     -2.8778466623     -0.7834086739     2.0761408111
C     -1.7423061861     -1.5359087101     2.4320898406
C     -3.0320665883     -1.9838778986     -0.0067426684
C     -0.4324060055     -4.3252050966     -0.4588384019
C     -1.6849383627     -3.7913285064     -0.4997135888
C     -1.365691437     -2.7228843482     1.7019402526
C     -2.2159104768     -3.0470994157     0.5911077677
C     1.0567280508     -2.1540008145     2.1839100912
C     2.3479351813     -2.1489467556     1.5841661815
C     2.6444733063     -3.0133829752     0.4885524029
C     1.7544474987     -3.9437384025     0.0449692695
C     0.0548438061     -3.1303698998     1.6781311353
C     0.4582718696     -4.0644517996     0.6542585241


