60

 C     1.2389232567     -4.1681430122     0.6152010294
C     1.2096235358     -3.9498006969     -0.7964623559
C     2.1490211938     -2.9146260285     -1.0938239053
C     2.0866287747     -3.2060633351     1.2168495508
C     2.7289128773     -2.468131343     0.1805505188
C     1.3367922426     -2.4726934846     2.2281499664
C     -0.0836617495     -3.9748962228     1.134734551
C     -0.0161114048     -3.0461984536     2.2263819356
C     -0.1685112454     -3.7294425213     -1.1619437827
C     -0.9981417292     -3.7431203768     0.0661127798
C     -0.4802394769     -2.8018026209     -2.1469326381
C     1.8510879877     -1.9279914213     -2.0871801637
C     0.5513761123     -1.9168679937     -2.6684299378
C     2.482638618     -0.6548942523     -1.9680520877
C     3.0537972205     -1.112529418     0.3888818268
C     3.2039860248     -0.2996659202     -0.7768595103
C     1.5387338622     -1.0971379891     2.4289209677
C     2.5829531725     -0.4378326045     1.6244693288
C     0.4042770264     -0.2702935027     2.9088590242
C     -1.0912343701     -2.2064491277     2.4220000867
C     -0.8825754031     -0.8613650938     2.9205174319
C     -2.0766742667     -2.8163981138     0.2258036012
C     -2.2133023722     -2.1908714     1.5067008206
C     -1.7018656675     -2.037452448     -2.091487332
C     -2.5336411216     -2.0412609484     -0.9445572186
C     -0.0738505225     -0.6830400749     -3.0951909756
C     -1.4724078013     -0.7997886068     -2.8412108402
C     1.9259304393     0.5602716503     -2.527566157
C     0.5775311892     0.5854613447     -2.9798801436
C     3.2534366971     1.1272158506     -0.6951308614
C     2.488957741     1.6779168331     -1.8207576139
C     2.690338887     0.9536345543     1.6830619234
C     3.1673722955     1.7332815087     0.5525971863
C     0.4696770789     1.1828113954     2.833634446
C     1.6910913422     1.7909788642     2.3656084081
C     -0.7277972957     1.9357931079     2.6437224661
C     -2.0517526238     -0.0973132977     2.5856143177
C     -2.8463033081     -0.9041958984     1.6507428629
C     -1.9791072874     1.2755850029     2.451340299
C     -3.3369295962     -0.8545827771     -0.7360684563
C     -3.4991981705     -0.2844234754     0.60021627
C     -2.2680702998     0.3254564961     -2.6218323048
C     -3.3036771589     0.2188713839     -1.6547794637
C     -0.241388394     1.7841121045     -2.6739132538
C     -1.6430155819     1.623531394     -2.4833941741
C     1.772586212     2.8674827595     -1.6646311152
C     0.3700562801     2.8874814462     -2.0082050623
C     2.5694895326     3.0441753109     0.6460670709
C     1.6933008498     3.0849570314     1.8106138234
C     1.9315408719     3.6199795958     -0.4421755207
C     -0.7350286503     3.1269987134     1.7873650779
C     -0.339776049     3.6338692221     -0.9501224337
C     0.4634498881     3.7113255594     1.3915682652
C     0.6100168006     4.0559105992     -0.0057870844
C     -2.6892115182     1.9402920051     1.3540547059
C     -3.4506750077     1.1745911782     0.4740692647
C     -3.328940678     1.46220243     -0.9201039472
C     -2.3527818393     2.3511138218     -1.4220411973
C     -1.8614020273     3.0249861561     0.8839474127
C     -1.6462553935     3.2089850399     -0.5298375826


