60

 C     -0.1128406089     -4.6486794759     -0.3197215759
C     1.2448501429     -4.2065307224     -0.3743451966
C     1.6316772911     -3.7650384362     0.9052346697
C     -0.6421111762     -4.2187303273     0.9879314897
C     0.429516157     -3.7436113688     1.7851291264
C     -1.7500808411     -3.3738770788     0.8100202755
C     -0.8057575863     -3.8814035472     -1.2718205353
C     -1.9018714962     -3.1965535059     -0.6584561931
C     1.4116111691     -3.2522406064     -1.4727763046
C     0.1015293762     -3.0483243758     -2.0401123876
C     2.3197747988     -2.1631482388     -1.3580082566
C     2.3563530142     -2.575127145     1.0890381693
C     2.8936282717     -1.8542318753     -0.0343478383
C     0.3982690588     -2.4829036124     2.4061601994
C     1.6695813485     -1.8211343215     2.1157657459
C     -1.906542632     -2.2015839599     1.6281625449
C     -0.7879809605     -1.6626149631     2.4079601096
C     -2.8573826424     -1.2884197739     1.1604460122
C     -2.3911290441     -1.9971665601     -1.18857791
C     -3.2264138224     -1.2765097221     -0.2772928483
C     -0.3110069052     -1.7619285621     -2.5069528199
C     -1.6227403951     -1.2227881633     -2.1748539212
C     2.0519196447     -1.0487634129     -2.1970901775
C     0.7338035246     -0.8352898794     -2.7479353179
C     2.6489023579     0.2443371044     -1.976123578
C     3.2757697505     -0.5328985913     0.2367138424
C     3.3238088577     0.4949577965     -0.7856714482
C     1.8276854754     -0.4440557558     2.2540793822
C     2.8577268332     0.1402877401     1.447162385
C     -0.673302333     -0.2211402102     2.5983068881
C     0.6773004921     0.3752664855     2.6644180028
C     -2.9368587351     0.0427735672     1.6318573525
C     -1.8019820293     0.6504607086     2.2777407044
C     -3.7002382082     -0.0337037347     -0.6028380854
C     -3.6813916162     0.7733142699     0.6289141325
C     -1.8756969263     0.2077880289     -2.2988376383
C     -3.0283060169     0.7472242347     -1.6214020126
C     0.5024152042     0.5779583054     -2.8486796896
C     1.7386495473     1.2547145753     -2.4921820353
C     -0.7661058066     1.1442558401     -2.5876691018
C     1.7301444752     2.5247635779     -1.9668001219
C     3.2219947199     1.7992259071     -0.1549705615
C     2.9231130621     1.5522690848     1.2564308123
C     2.5776713494     2.8470232477     -0.8114163384
C     0.8379552948     1.7631874613     2.5808534941
C     2.0222514047     2.3701013306     1.9461820307
C     -1.5896530322     2.0915036662     2.0479975862
C     -0.2885078826     2.6392702038     2.3028128807
C     -3.3449332274     2.0485911901     0.3002483839
C     -2.9987838002     2.0847462287     -1.1400251513
C     -2.3496699652     2.7628590887     1.024766125
C     -0.7786096801     2.5378031619     -2.085608996
C     0.4555185947     3.2139127824     -1.8077281268
C     -1.8956159891     2.9292913035     -1.2720512696
C     -1.6554699494     3.5681653718     0.0393372979
C     1.852715262     3.8093329932     -0.0336967406
C     1.6096642131     3.5929107466     1.3415448871
C     0.1903753041     3.7624134819     1.582695884
C     0.5914372684     4.0856076638     -0.6817906675
C     -0.4266299562     4.1220807779     0.3318726316


