60

 C     1.2989530043     4.4092422949     -0.3844969183
C     -0.1102875966     4.5554925276     -0.1171456564
C     -0.3206090413     4.1764473339     1.2233481931
C     1.9279936107     3.7645913605     0.7841511105
C     0.9604620559     3.66932037     1.7773686014
C     2.6043358001     2.571522638     0.3626932128
C     1.438201926     3.5144270964     -1.442402897
C     2.3473188396     2.4477907116     -1.0780666502
C     -0.8430168115     3.8378121677     -1.1502391091
C     0.1287755985     3.1642056647     -1.9975269736
C     -1.9760460311     3.1121938831     -0.7938441803
C     -1.3335489225     3.2508506708     1.5899104832
C     -2.2703388678     2.857142374     0.622746021
C     0.6940457743     2.4178308481     2.4074207071
C     -0.7323311438     2.1824463814     2.4054709146
C     2.5349708393     1.3887989836     1.1257720492
C     1.5524685748     1.3049381293     2.2087521457
C     2.9276843015     0.1579883874     0.4518268631
C     2.239580816     1.2063391714     -1.6901743323
C     2.8608368105     0.0713649291     -0.9977087405
C     -0.0819465648     1.8640071791     -2.4885124558
C     1.0872445832     0.9644142227     -2.572777482
C     -2.3164074947     1.9055896707     -1.4968012268
C     -1.4052501227     1.2439011174     -2.3535222357
C     -2.8997725728     1.5833493548     0.7349075246
C     -3.1455161657     1.1030232773     -0.6042689184
C     -1.2736736032     0.8791326317     2.4646806508
C     -2.5286032892     0.6288021774     1.7518589103
C     1.0466817648     0.0108425274     2.5926003335
C     -0.3683434652     -0.2339557664     2.7381414407
C     2.8517552893     -1.028483522     1.1961918419
C     1.9172479547     -1.0987047776     2.3224139056
C     2.8666355695     -2.3334170136     0.568174436
C     2.757481871     -1.1995004887     -1.5990594934
C     2.7402503522     -2.4299662002     -0.8180303831
C     0.8874533088     -0.3485420027     -2.9839749101
C     1.8384489246     -1.3589649297     -2.6788666642
C     -1.5679163488     -0.2174913629     -2.5614125229
C     -0.4493543097     -0.9701453745     -2.9726171782
C     -3.3629967783     -0.2322821277     -0.8307256237
C     -2.5932426068     -0.9381418752     -1.8681048902
C     -2.9270125605     -0.7111826047     1.5319178528
C     -3.5045561351     -1.0878177217     0.2848564068
C     -0.8629819349     -1.6215179849     2.6094718393
C     -2.1098604986     -1.8278550272     1.9792447928
C     1.4812777531     -2.4140782676     2.4754902828
C     2.0896291841     -3.2154067693     1.4026625731
C     0.0913322879     -2.7132401053     2.5296971434
C     1.1165220007     -4.0429364249     0.8795926418
C     -0.1192783556     -3.8212587694     1.6291796937
C     1.6983066122     -3.3059220874     -1.3855691642
C     1.139822699     -2.5873453136     -2.4805216819
C     -0.2684315836     -2.3495510965     -2.6007765967
C     0.8183228486     -4.0088101572     -0.5355691497
C     -2.3879523662     -2.2783273007     -1.410091656
C     -2.9716306112     -2.3656127257     -0.0834840512
C     -2.2542592502     -2.9093915756     0.9845869633
C     -1.1639028133     -3.7587048106     0.7013817042
C     -1.1760133856     -2.9986860087     -1.6908241592
C     -0.6189598236     -3.8365679901     -0.6693952378


