60

 C     0.2488110404     3.952909738     1.0370567271
C     -1.0510486342     3.9371724879     0.5894774561
C     -1.0321321131     3.8385588837     -0.8950282278
C     1.1439629818     3.9392990036     -0.1317921082
C     0.3305127273     3.7649687682     -1.3128898997
C     2.2176282126     3.0946746307     0.1410922053
C     0.7217982191     2.9752232747     1.9800215596
C     2.0431617954     2.6257451236     1.5335113493
C     -0.1521686822     1.9566298665     2.481131909
C     -1.9839055564     3.0153631874     1.107373307
C     -1.5641155714     2.0606139986     2.1189027218
C     -1.9805857865     2.879064735     -1.2613769282
C     -2.7290283046     2.5285516042     -0.0465388856
C     -1.6553971129     1.8291685087     -2.2045646693
C     0.6795442596     2.7561152265     -2.2259409219
C     -0.3294376069     1.8496326834     -2.7155120482
C     2.6824623517     2.1444559104     -0.8578453425
C     1.8935546562     1.9798427848     -2.0281564651
C     3.3790415223     0.9824815978     -0.3876259626
C     2.5992051629     1.4353962573     1.9235435272
C     3.4568285517     0.7493684684     1.0105093901
C     0.4214836309     0.6104477712     2.7842203098
C     1.7993281801     0.4231792604     2.5956550311
C     -0.4214836309     -0.6104477712     2.7842203098
C     -2.3529469314     0.8841803972     2.2132500937
C     -1.7993281801     -0.4231792604     2.5956550311
C     -3.3943489499     1.3343462787     0.0246413299
C     -3.3930912688     0.6504563337     1.2768154431
C     -2.3444691994     0.5218269504     -2.0848525096
C     -3.2611206076     0.3211667268     -1.0261970232
C     -1.6995374652     -0.6591761706     -2.5972354697
C     0.3471712334     0.6007798763     -3.0416458988
C     1.6995374652     0.6591761706     -2.5972354697
C     -0.3471712334     -0.6007798763     -3.0416458988
C     3.2611206076     -0.3211667268     -1.0261970232
C     2.3444691994     -0.5218269504     -2.0848525096
C     3.3930912688     -0.6504563337     1.2768154431
C     2.3529469314     -0.8841803972     2.2132500937
C     3.3943489499     -1.3343462787     0.0246413299
C     0.1521686822     -1.9566298665     2.481131909
C     1.5641155714     -2.0606139986     2.1189027218
C     -0.7217982191     -2.9752232747     1.9800215596
C     -2.5992051629     -1.4353962573     1.9235435272
C     -3.4568285517     -0.7493684684     1.0105093901
C     -3.3790415223     -0.9824815978     -0.3876259626
C     -2.0431617954     -2.6257451236     1.5335113493
C     -1.8935546562     -1.9798427848     -2.0281564651
C     -2.6824623517     -2.1444559104     -0.8578453425
C     -2.2176282126     -3.0946746307     0.1410922053
C     0.3294376069     -1.8496326834     -2.7155120482
C     1.6553971129     -1.8291685087     -2.2045646693
C     -0.6795442596     -2.7561152265     -2.2259409219
C     2.7290283046     -2.5285516042     -0.0465388856
C     1.9839055564     -3.0153631874     1.107373307
C     1.9805857865     -2.879064735     -1.2613769282
C     -0.2488110404     -3.952909738     1.0370567271
C     -1.1439629818     -3.9392990036     -0.1317921082
C     -0.3305127273     -3.7649687682     -1.3128898997
C     1.0510486342     -3.9371724879     0.5894774561
C     1.0321321131     -3.8385588837     -0.8950282278


