60

 C     -1.637151606     -4.1428454544     0.4866280694
C     -0.5572226731     -4.3727283056     -0.424885864
C     0.6825897848     -4.2146068578     0.281284419
C     -1.1169046731     -3.6601568132     1.7254826951
C     0.3209473768     -3.7228135763     1.6363752301
C     -1.7617424668     -2.4175177716     2.0337622023
C     -2.5077674268     -3.1639253937     -0.0658337746
C     -2.6845494582     -2.1472611566     0.9098431104
C     -0.8163504499     -3.6028011034     -1.6200916122
C     -2.010029339     -2.7947169365     -1.3771887824
C     0.2664022694     -3.013380847     -2.2809380758
C     1.7639544753     -3.6284844131     -0.4008908448
C     1.5731533817     -3.1887261012     -1.742205028
C     2.5972657356     -2.6034251237     0.2532666776
C     1.0447609478     -2.6736438192     2.1807936732
C     2.2540983322     -2.1694855081     1.5221025674
C     -1.0324837063     -1.3226120704     2.5680846142
C     0.3787881108     -1.5185085507     2.7485170505
C     -1.5331534467     0.0472310088     2.3767240603
C     -2.9268963776     -0.8393032672     0.5069000793
C     -2.6475500715     0.2354914851     1.4655846796
C     -2.0631545948     -1.4427431641     -1.7682914671
C     -2.8026226103     -0.5325882641     -0.9121985734
C     0.1819686509     -1.6325645016     -2.765217982
C     -0.9518784613     -0.8455432865     -2.5480510976
C     2.3049647171     -1.9556708649     -1.9413241265
C     2.9645370899     -1.5872177498     -0.7351428384
C     1.506932372     -1.0207984306     -2.6237358588
C     3.1260542455     -0.2224687525     -0.4215419439
C     2.4143076415     -0.7827299254     1.8683669009
C     1.2579340295     -0.3979570596     2.6418814561
C     2.9872211469     0.1562867203     0.9836223939
C     -0.6657756477     1.1831549064     2.639956067
C     0.7815448905     0.9471607556     2.6857101624
C     -1.0897128492     2.4960435561     2.2457702012
C     -2.9997442924     1.5350617402     1.0616521874
C     -2.2976287931     2.6553938172     1.5553603692
C     -2.8442734166     0.8235977852     -1.291595681
C     -3.2065423531     1.7981141506     -0.3555890036
C     -0.7900818177     0.620677256     -2.6288924652
C     -1.8700277024     1.4197568601     -2.2176197599
C     1.6857835609     0.3585627696     -2.3950069255
C     2.7035503665     0.7626575518     -1.4247872294
C     0.5474120504     1.2304213455     -2.6443541115
C     2.7511860983     2.133351257     -1.0795164975
C     2.7558905934     1.5198373601     1.311464741
C     1.6668100589     1.9281689729     2.189065933
C     2.8769424443     2.505428457     0.3218508987
C     -0.1434127958     3.5087526576     1.7243785327
C     1.2145877016     3.2536258898     1.7456216902
C     2.0249200092     3.6353648357     0.6152583014
C     -2.0810350249     3.6285074138     0.4562509888
C     -2.5888969014     3.0575336915     -0.7076527362
C     -1.717266132     2.8156838727     -1.8395262819
C     -0.7564924587     4.1211685594     0.5280470666
C     0.6785902724     2.6100889299     -2.313055224
C     1.8446306048     3.0581925255     -1.6411248977
C     1.4020896822     3.9896536524     -0.5866537632
C     -0.4588909154     3.4008417929     -1.83914627
C     -0.0005798796     4.1814131925     -0.6775482027


