60

 C     0.7584608928     4.3069161994     0.2654796962
C     -0.4798129256     4.1255231957     0.8908745744
C     -1.4630676202     3.8411469264     -0.1552813863
C     0.6137227324     4.0237536108     -1.1861073731
C     -0.7551005646     3.7041596891     -1.410076483
C     1.6278250938     3.0934544171     -1.5304935303
C     1.8781327787     3.6346611279     0.7550345734
C     2.5124364524     2.9965186655     -0.3899583939
C     1.7439866298     2.6379932664     1.7779365447
C     -0.6492755654     3.1645887575     1.9320767451
C     0.4645936747     2.3406917996     2.3631772848
C     -2.3544030645     2.8597322053     0.2941847362
C     -1.9185651666     2.5149249551     1.6515725448
C     -2.8158529439     1.8123456718     -0.5774721178
C     -1.0843575742     2.6022128327     -2.2111891575
C     -2.1872212243     1.7579265913     -1.8632989909
C     1.318432429     1.8720982852     -2.2739106349
C     -0.0237313408     1.7165439897     -2.7037135337
C     2.0928713219     0.6480925074     -2.0471341419
C     2.9909121783     1.7565388604     -0.01107375
C     2.568838443     1.5214011968     1.3723723698
C     3.0010669252     0.6530221502     -0.9120544155
C     2.4089039083     0.2104581472     1.8761997443
C     0.2025148786     0.9467318438     2.7994732688
C     1.224438793     -0.1012344706     2.6716110058
C     -2.1730343917     1.2629253393     2.1347431281
C     -1.1442694504     0.5171019595     2.8458467143
C     -3.2806474965     0.5534524669     0.014746078
C     -2.9942014728     0.3207139042     1.4036701949
C     -3.3561149542     -0.6155341393     -0.8061589681
C     -1.9549319914     0.464335695     -2.4865839973
C     -0.5864568499     0.4099696801     -2.9287290617
C     -2.6073969137     -0.6622602325     -2.0501827695
C     1.5838724256     -0.6489603423     -2.498959317
C     0.1712174182     -0.7832935883     -2.8362278693
C     2.2628224127     -1.8339763793     -2.0588430653
C     3.3678671583     -0.5626374604     -0.2957468806
C     3.0500943024     -0.8085675117     1.1263294922
C     3.1841831003     -1.7560733625     -0.9749549907
C     2.7143842977     -2.1982746752     1.2792138886
C     2.9077054125     -2.8304592041     0.0020624559
C     0.8412835338     -1.4711680504     2.7305309256
C     1.5683306506     -2.5261561807     2.0287384316
C     -1.5167468355     -0.8659200028     2.7686375598
C     -2.6926977099     -0.9914066116     1.9176088271
C     -0.5428858874     -1.8535026982     2.7611318504
C     -3.2484584294     -1.9140822885     -0.2393843487
C     -2.834529122     -2.1226569714     1.1112117772
C     -1.9367162809     -1.9445371643     -2.1515134521
C     -0.565066197     -2.0234983166     -2.5074202917
C     -2.4514857567     -2.7565216909     -1.0828473135
C     1.5480365493     -3.064680194     -1.8473642391
C     1.9500933267     -3.6482144199     -0.5374350016
C     0.1683122107     -3.1395842191     -1.9402860376
C     0.6086719521     -3.4834733572     1.5044015806
C     -0.7083733464     -3.0579092806     1.9464006273
C     -1.8202362073     -3.1782974838     1.1197874013
C     -1.6148318187     -3.5766064753     -0.2796390035
C     0.7639206855     -3.9901396199     0.1886857237
C     -0.3374635666     -3.860309546     -0.7396993288


