60

 C     0.4196480784     4.6363055161     0.0769033321
C     0.6094954751     4.1073760945     -1.2705444012
C     -0.6316702643     3.7187353494     -1.7975441607
C     -0.9004789717     4.2746200959     0.4681841224
C     -1.6091647926     3.8516524582     -0.6887611572
C     -0.8411871348     3.3668690958     1.6271072296
C     1.3083606135     3.9099300862     0.9122925004
C     0.559735811     3.2543939524     1.9695227439
C     1.6646501037     3.1363129442     -1.2458935311
C     2.1841853253     3.093024402     0.128196223
C     1.5534217399     1.9068751998     -1.9504302004
C     -0.8159111277     2.4404854641     -2.3657395785
C     0.2619206195     1.5219481291     -2.5282474531
C     -2.3933938432     2.708321574     -0.6448843648
C     -2.0226397308     1.8737962987     -1.7926364134
C     -1.6862236572     2.2269165004     1.7171985162
C     -2.6145469859     2.0143753127     0.6066693602
C     -1.2154647556     1.0083284186     2.4211629259
C     1.0476476449     2.062893547     2.4772711839
C     0.1468385009     0.9685240496     2.8091554024
C     2.7116107714     1.8914885654     0.6636907008
C     2.2519926561     1.4868293656     1.9584546515
C     2.5012039245     0.8589260156     -1.5962470998
C     3.1304428059     0.8569281824     -0.272418325
C     2.3399343956     -0.3733318931     -2.2703711595
C     -0.0673238381     0.096846801     -2.6857475146
C     1.0136981826     -0.7839794497     -2.7149929973
C     -2.3477093254     0.5147547781     -1.8441394927
C     -1.4003051431     -0.4515179209     -2.3701645263
C     -3.202884358     0.7686953952     0.4817251227
C     -3.2862897428     0.1027766223     -0.8362261202
C     -1.8978335497     -0.2756820695     2.2895071588
C     -3.071479879     -0.2730533215     1.4595331309
C     -1.1697943114     -1.5509014133     2.4491671834
C     0.8893174245     -0.2581916456     2.7900427298
C     2.2074461187     0.0837098455     2.2842965668
C     0.2912462578     -1.5202576095     2.5500709806
C     3.5250906256     -0.395741647     0.2785649442
C     2.9317217118     -0.813320431     1.5439757191
C     2.9781283874     -1.5473668336     -1.7906544356
C     3.5449659428     -1.561937039     -0.5242441434
C     0.8493021896     -2.2160967296     -2.4455570129
C     2.0622088154     -2.6859253745     -1.9174085484
C     -1.5882940701     -1.8689027672     -2.0663638159
C     -0.4115897557     -2.7481683877     -2.0122713854
C     -3.527394436     -1.2333932339     -0.6384323472
C     -3.5261898872     -1.4706737545     0.8315582893
C     -2.7394737516     -2.2466781191     -1.2593612989
C     -1.7491024134     -2.7540731236     1.9007692051
C     -2.9298565965     -2.6689207575     1.0598902852
C     -2.6087432728     -3.2838830555     -0.2608674246
C     -0.3303330808     -3.7712488196     -0.9985232581
C     -0.9193321174     -3.715829771     1.2751662336
C     -1.4241003368     -3.9413261759     -0.094878026
C     1.1293144212     -2.5508450084     1.9115099037
C     2.4471077045     -2.1884214569     1.4238475453
C     2.9358644864     -2.6915798506     0.2095344553
C     2.08195451     -3.4201005931     -0.6864301223
C     0.4784558401     -3.5939136616     1.1935948401
C     0.8717999457     -3.8873783461     -0.1985824718


