60

 C     -0.8522052603     -3.9628749613     0.6907829013
C     -0.8522052603     -3.9628749613     -0.6907829013
C     0.5198791071     -3.8320873419     -1.1691682163
C     0.5198791071     -3.8320873419     1.1691682163
C     1.3835672498     -3.6891752419     0.
C     0.5424623392     -2.9034246866     2.2036469192
C     -1.6778894351     -3.0412844348     1.4363527394
C     -0.8487404749     -2.424592231     2.4445517206
C     -2.5680969115     -2.227715464     0.740533253
C     -1.6778894351     -3.0412844348     -1.4363527394
C     -2.5680969115     -2.227715464     -0.740533253
C     0.5424623392     -2.9034246866     -2.2036469192
C     -0.8487404749     -2.424592231     -2.4445517206
C     1.63079072     -1.9561124661     -2.2931302135
C     2.3267835878     -2.6771653558     0.
C     2.5249695065     -1.8423997975     -1.1777117779
C     1.63079072     -1.9561124661     2.2931302135
C     2.5249695065     -1.8423997975     1.1777117779
C     1.4106488434     -0.8020943694     3.0474587956
C     -1.0965585734     -1.1248808941     2.9091377829
C     0.0387226507     -0.4389963806     3.4943310303
C     -2.8248167954     -0.8860618311     1.1831064635
C     -2.1477662753     -0.3016710958     2.2822931347
C     -2.8248167954     -0.8860618311     -1.1831064635
C     -3.1352905445     -0.0994043885     0.
C     -1.0965585734     -1.1248808941     -2.9091377829
C     -2.1477662753     -0.3016710958     -2.2822931347
C     1.4106488434     -0.8020943694     -3.0474587956
C     0.0387226507     -0.4389963806     -3.4943310303
C     2.0917630512     0.4270888123     -2.7678564765
C     2.9367901074     -0.5522272031     -0.7329104572
C     2.9367901074     -0.5522272031     0.7329104572
C     2.6931049038     0.6308184709     -1.4788698455
C     2.0917630512     0.4270888123     2.7678564765
C     2.6931049038     0.6308184709     1.4788698455
C     0.0000213758     0.9153654394     3.7341472704
C     1.3115239395     1.4663697812     3.3771865914
C     -2.0535309084     1.1744411509     2.3369702956
C     -1.0250353574     1.7692714627     3.1393181951
C     -2.9650919158     1.2577603126     0.
C     -2.4767300477     1.9251317157     1.1896980354
C     -2.0535309084     1.1744411509     -2.3369702956
C     -2.4767300477     1.9251317157     -1.1896980354
C     0.0000213758     0.9153654394     -3.7341472704
C     1.3115239395     1.4663697812     -3.3771865914
C     -1.0250353574     1.7692714627     -3.1393181951
C     1.0972647145     2.6316233879     -2.6993734147
C     -0.3525182139     2.9305685882     -2.6693194624
C     2.4354324025     1.8913577229     -0.7370916428
C     2.4354324025     1.8913577229     0.7370916428
C     1.6554671235     2.8874903956     -1.3975294156
C     1.0972647145     2.6316233879     2.6993734147
C     -0.3525182139     2.9305685882     2.6693194624
C     1.6554671235     2.8874903956     1.3975294156
C     -1.7772761279     3.0954478197     0.7254200262
C     -1.7772761279     3.0954478197     -0.7254200262
C     -0.6320471925     3.5176328195     -1.4293172739
C     0.6393867984     3.637807824     -0.6839208786
C     -0.6320471925     3.5176328195     1.4293172739
C     0.6393867984     3.637807824     0.6839208786


