60

 C     -4.7664296641     0.5872772973     1.3357531337
C     -4.1364272458     1.6704789276     0.6509894166
C     -4.1437541935     1.4475358559     -0.7482369837
C     -4.8607418525     -0.4745267253     0.324080251
C     -4.5675845012     0.0537520558     -0.9666110544
C     -4.1660085605     -1.6306465183     0.7737240838
C     -3.7800370419     0.109408133     2.254022039
C     -3.519816926     -1.2685705092     2.0527068395
C     -2.8455817402     1.9859367244     1.2652745878
C     -2.6327601404     1.0050001398     2.2939289021
C     -1.7460074384     2.4659165735     0.5005904925
C     -2.9961637229     1.7058052787     -1.5231052729
C     -1.8589714596     2.414517814     -0.9700589301
C     -3.5917870371     -0.5462951629     -1.7929812603
C     -2.7211760236     0.5226338736     -2.2955660229
C     -3.1809424793     -2.2433796776     -0.0328729867
C     -2.9222469214     -1.7727650891     -1.387743145
C     -2.1965068585     -1.7422482589     2.0344565013
C     -2.0122766171     -2.4956731969     0.8145097619
C     -1.3251191375     0.5109474336     2.5156716749
C     -1.0928594635     -0.9264772885     2.4550726435
C     -0.4374648523     2.3473221073     1.0826358021
C     -0.2281305654     1.3728629925     2.1477354178
C     0.7287090183     2.7047180937     0.2891226606
C     -0.6769966535     2.3516239814     -1.7094482851
C     0.5966630458     2.6451893133     -1.1309633506
C     -1.421580189     0.2723757552     -2.8238957372
C     -0.4613331698     1.3215486328     -2.7223870648
C     -1.6278737344     -2.0086454252     -1.9038605914
C     -0.9374491316     -1.0730617154     -2.782543623
C     -0.7287090183     -2.7047180937     0.2891226606
C     -0.5966630458     -2.6451893133     -1.1309633506
C     0.2281305654     -1.3728629925     2.1477354178
C     0.4374648523     -2.3473221073     1.0826358021
C     1.0928594635     0.9264772885     2.4550726435
C     1.3251191375     -0.5109474336     2.5156716749
C     2.0122766171     2.4956731969     0.8145097619
C     2.1965068585     1.7422482589     2.0344565013
C     3.1809424793     2.2433796776     -0.0328729867
C     1.6278737344     2.0086454252     -1.9038605914
C     0.9374491316     1.0730617154     -2.782543623
C     2.9222469214     1.7727650891     -1.387743145
C     0.4613331698     -1.3215486328     -2.7223870648
C     0.6769966535     -2.3516239814     -1.7094482851
C     1.421580189     -0.2723757552     -2.8238957372
C     1.7460074384     -2.4659165735     0.5005904925
C     1.8589714596     -2.414517814     -0.9700589301
C     2.6327601404     -1.0050001398     2.2939289021
C     2.8455817402     -1.9859367244     1.2652745878
C     3.519816926     1.2685705092     2.0527068395
C     4.1660085605     1.6306465183     0.7737240838
C     3.7800370419     -0.109408133     2.254022039
C     4.1364272458     -1.6704789276     0.6509894166
C     4.8607418525     0.4745267253     0.324080251
C     4.7664296641     -0.5872772973     1.3357531337
C     3.5917870371     0.5462951629     -1.7929812603
C     2.7211760236     -0.5226338736     -2.2955660229
C     2.9961637229     -1.7058052787     -1.5231052729
C     4.5675845012     -0.0537520558     -0.9666110544
C     4.1437541935     -1.4475358559     -0.7482369837


