60

 C     1.5492378415     -4.3961352807     -0.3400680445
C     0.4325398638     -4.5473287726     0.5665462066
C     -0.7543191929     -4.4527152384     -0.1774346269
C     1.0103730215     -3.9126188642     -1.6160350079
C     -0.3806987141     -4.0038975334     -1.555322695
C     1.5848707624     -2.6317910931     -1.9270216392
C     2.3468928632     -3.366875367     0.1667340437
C     2.5338782835     -2.3659438901     -0.8544453524
C     0.614536511     -3.6268402011     1.6870614955
C     1.8501966476     -2.9008463426     1.4593800283
C     -0.4829423733     -2.9080816899     2.1741162665
C     -1.8359876829     -3.6518132948     0.2598222462
C     -1.7685857536     -2.9887678695     1.5111374243
C     -1.206784233     -2.9097112681     -1.9051858537
C     -2.2499607928     -2.8402898569     -0.8900152003
C     0.7950329144     -1.5276635632     -2.3808313833
C     -0.654394753     -1.6663285876     -2.3970400099
C     1.3894989996     -0.1893329538     -2.2786807613
C     2.8669491012     -1.0744057082     -0.4921881327
C     2.5917075742     -0.0338409547     -1.4707690019
C     1.9861101808     -1.5390980389     1.7895646997
C     2.8104573222     -0.7181200118     0.9176604063
C     -0.3194889167     -1.5283750803     2.6196557913
C     0.9005862638     -0.8325279474     2.4831625565
C     -2.4187549553     -1.7049679393     1.6804187549
C     -1.5670148599     -0.8209100819     2.435414707
C     -2.9369900298     -1.6736352409     -0.7084242148
C     -3.1438955891     -1.1370179406     0.6259053599
C     -1.4727637384     -0.4588598351     -2.3073242313
C     -2.6894525875     -0.5417384522     -1.5699147698
C     0.5964852035     0.9914566919     -2.5394821971
C     -0.8669994379     0.8695558324     -2.5041825743
C     1.1775263238     2.2941181357     -2.2880081663
C     3.0705881738     1.2479652512     -1.1591199249
C     2.4365856967     2.3946078083     -1.6823998709
C     2.9383055115     0.6384358046     1.2328128276
C     3.3277490927     1.5515319935     0.2335054547
C     0.8572182061     0.6358226423     2.5396863591
C     2.0028833664     1.3386137376     2.1106356055
C     -1.6443593408     0.59340451     2.3282941984
C     -0.4263478713     1.3550936169     2.5491245907
C     -3.2962254786     0.2789607869     0.5256121673
C     -3.186777122     0.6097619776     -0.884261998
C     -2.7017745226     1.1609720943     1.4757096162
C     -1.616072317     2.0221269098     -2.145345447
C     -2.7750457843     1.869561413     -1.2811888439
C     0.3708711173     3.4365918304     -1.8192305372
C     -1.003341466     3.3143420739     -1.7929184046
C     2.3539801575     3.436136064     -0.6286132953
C     2.8453280414     2.8776259273     0.548044168
C     1.9764304575     2.7410647586     1.7001443949
C     1.0790073326     4.0517594975     -0.6872869024
C     -0.4240905058     2.7555969204     2.2186036936
C     0.7798600009     3.4308199217     1.7105361201
C     0.3758745007     4.2316752786     0.5390768353
C     -2.5995814625     2.5313910864     1.0923666575
C     -2.7230073947     2.88644027     -0.3027414857
C     -1.7286166448     3.8689204561     -0.6722173556
C     -1.5416259595     3.3323697258     1.5821792459
C     -1.035661353     4.2037555812     0.4947859066


