60

 C     0.9685795767     -4.3695154508     0.2132006796
C     0.6445427698     -4.0281543602     -1.1283467643
C     1.5878255507     -3.0493128279     -1.6064625706
C     2.0586219244     -3.5825358681     0.6451288609
C     2.5399655395     -2.8634958003     -0.5161889088
C     1.5968361802     -2.7852459517     1.7453109603
C     -0.1888716903     -4.0949669905     1.0328441384
C     0.1788652133     -3.115212682     1.9982158073
C     -0.7719328542     -3.7816070924     -1.2070157776
C     -1.3090805539     -3.861845446     0.1762142826
C     -1.2069154077     -2.7510108684     -2.0197002754
C     1.138022844     -1.9034584236     -2.3421873857
C     -0.2583882411     -1.826913912     -2.6397337023
C     1.8607517065     -0.6273303449     -2.24007431
C     3.0839723731     -1.6197613698     -0.3222917791
C     2.9172598217     -0.5677366806     -1.2873939402
C     2.0749735446     -1.4607765364     1.9493685817
C     3.0331913749     -0.9819837191     0.996044313
C     1.221331859     -0.4697521068     2.6138968558
C     -0.7279342988     -2.0792167018     2.3654725437
C     -0.2015536536     -0.7741834396     2.7988340844
C     -2.2603812381     -2.9395714367     0.5842252535
C     -2.0336648019     -2.1265355203     1.7606052713
C     -2.3939904472     -1.9796753199     -1.6728196638
C     -2.9375869937     -2.0888356101     -0.3920460531
C     -0.9131227245     -0.5651139438     -2.8015886233
C     -2.2634287429     -0.6760250412     -2.2755717289
C     1.2148086613     0.6389975189     -2.5950910707
C     -0.2223543631     0.6853122568     -2.8118537479
C     1.8606288642     1.8622967037     -2.1927550626
C     3.2785588573     0.666802489     -0.6266580909
C     3.2666241981     0.4057166173     0.8136519825
C     2.8547926297     1.8649114798     -1.1155000341
C     1.62719129     0.8929026108     2.5556794334
C     2.6673614351     1.3380563864     1.6539250252
C     0.6873385804     1.9859269134     2.6538175047
C     -1.1028190492     0.3209531834     2.8542934189
C     -0.6643888515     1.6918406796     2.775897616
C     -2.820103075     -0.9290546227     1.621322188
C     -3.3895115286     -0.8943715373     0.2858718118
C     -2.4101338453     0.2513183918     2.2253062889
C     -2.8718498576     0.4328279735     -1.7048909868
C     -3.4671815754     0.3221034024     -0.3878686021
C     -0.9905410697     1.8949149162     -2.4658513552
C     -2.2662517698     1.7328136817     -1.8361263604
C     1.1375890059     3.0547786351     -2.0698044999
C     -0.2806598162     3.0990634711     -2.1395684753
C     2.5411633192     2.971950131     -0.1999163765
C     2.3467984416     2.6727182895     1.1672488996
C     1.1294973963     3.1021385693     1.8270919984
C     1.5948638438     3.7912262762     -0.8654236538
C     -0.7051540498     3.9239961853     -1.040516976
C     0.1762333018     3.8829313307     1.1374121346
C     0.461742821     4.2640288638     -0.2170378261
C     -1.6427460119     2.4591107303     2.01505666
C     -2.686695277     1.5302475854     1.6079444487
C     -3.1926104371     1.5648259555     0.3006719956
C     -2.5922240967     2.483974599     -0.6436414356
C     -1.2311999893     3.4906397923     1.1862886136
C     -1.7466566131     3.5138744855     -0.1969156153


