60

 C     4.7762267497     -0.0560330764     0.5517475413
C     4.4915751168     1.1649195982     -0.1684173093
C     3.8202175168     2.0159862059     0.709041601
C     4.0390400947     -0.0201830209     1.834828288
C     3.5104571059     1.2619133737     1.9621568963
C     3.1670287582     -1.1521612497     1.905521689
C     4.2875080135     -1.1207948472     -0.1844997764
C     3.4768385742     -1.944883706     0.6958706239
C     3.8366002983     0.7921207018     -1.4294840865
C     3.7016764165     -0.6521572817     -1.4581496546
C     2.7595732596     1.544933646     -1.871971931
C     2.6384961584     2.7012538638     0.3109390409
C     2.2204629673     2.6226222105     -1.037927089
C     2.1322438712     1.4445205524     2.224832262
C     1.6338198078     2.4887306455     1.3438937225
C     1.7927541212     -1.0163758823     2.2746641373
C     1.2597295661     0.3356438153     2.4801695049
C     0.8474227829     -2.0636472041     1.8458583384
C     2.5233586271     -2.7129207487     0.124549195
C     1.2963469031     -2.9956035129     0.8406104429
C     2.5378449899     -1.2809275626     -1.9653409201
C     2.1683275934     -2.523201389     -1.3113288502
C     1.6161288711     0.918255353     -2.5180078635
C     1.4332724801     -0.4866185416     -2.5525853559
C     0.8410918495     2.7386286159     -1.3221135241
C     0.4786012056     1.7701308149     -2.3439188848
C     0.2739400271     2.616308053     1.0777863893
C     -0.1051386579     2.9910989909     -0.2822975864
C     -0.1627974254     0.577511497     2.3957554915
C     -0.6748845003     1.8195896663     1.8371394349
C     -0.5666685489     -1.8583815965     1.9844932741
C     -1.0724155331     -0.5549438652     2.459715589
C     -1.4774398468     -2.6054519822     1.1235678404
C     0.3950841285     -3.4613255972     -0.1370183816
C     0.8981814078     -3.0137596358     -1.4505561994
C     -0.9479524067     -3.1842460796     -0.0674208435
C     0.0374871894     -0.9942666188     -2.588371741
C     -0.1801908131     -2.3074608008     -2.0919163923
C     -1.3723043291     -2.6035421656     -1.3539103705
C     -0.8490453755     1.3306150616     -2.4690865006
C     -1.1280016546     -0.0944936594     -2.5797211973
C     -1.4430803315     2.8881459572     -0.6348393215
C     -1.8243589453     2.1928411605     -1.862063385
C     -2.0906882726     1.9977452899     1.5681644458
C     -2.4720754763     2.6924834929     0.3518103089
C     -2.4516825478     -0.2922885638     2.4385991152
C     -2.9997635074     1.0135692293     2.0767192101
C     -2.8203668207     -2.2229499604     1.0009469228
C     -3.3959808338     -1.286681837     1.9375548187
C     -2.5343794624     -1.827213257     -1.4269163994
C     -2.4553626539     -0.5641281919     -2.1599559493
C     -3.4177087542     -1.9663272666     -0.290535226
C     -3.1265755292     1.7644062119     -1.6817635867
C     -3.623999688     2.2460169362     -0.3674214013
C     -3.4931936556     0.4013033954     -1.844056384
C     -4.2718740187     0.7669332663     1.4406645417
C     -4.5042295509     -0.6605117537     1.3799008091
C     -4.4665995364     -1.0170439719     -0.0500649426
C     -4.4852727115     1.3033984772     0.1414432338
C     -4.4773047638     0.1388985441     -0.8172835551


