60

 C     1.3324129746     4.4921146379     0.
C     0.4831737729     4.2604671402     1.146646432
C     -0.8703403437     4.1968158782     0.7411661179
C     0.4831737729     4.2604671402     -1.146646432
C     -0.8703403437     4.1968158782     -0.7411661179
C     1.0026540377     3.1741593489     -1.9427426051
C     2.242314726     3.4086168087     0.
C     2.1432636574     2.6409752954     -1.2129108896
C     1.0026540377     3.1741593489     1.9427426051
C     2.1432636574     2.6409752954     1.2129108896
C     0.125928816     2.2732929245     2.6078602138
C     -1.703580089     3.1473858946     1.1774524594
C     -1.2986769591     2.2555942361     2.2362732713
C     -1.703580089     3.1473858946     -1.1774524594
C     -2.33629652     2.5702824153     0.
C     0.125928816     2.2732929245     -2.6078602138
C     -1.2986769591     2.2555942361     -2.2362732713
C     0.7195745001     1.0422305214     -2.9913215432
C     2.4533437157     1.2488688192     -1.2300861422
C     1.8939270786     0.5432356524     -2.3218407508
C     2.4533437157     1.2488688192     1.2300861422
C     2.7216687737     0.5109465858     0.
C     0.7195745001     1.0422305214     2.9913215432
C     1.8939270786     0.5432356524     2.3218407508
C     -0.0608424147     -0.1133165584     3.335139558
C     -1.9738078913     1.0108250381     2.3108294823
C     -1.4074857391     -0.1351146899     2.9763846851
C     -2.8390565911     1.2479595982     0.
C     -2.7726995946     0.5061648139     1.2143308187
C     -1.9738078913     1.0108250381     -2.3108294823
C     -2.7726995946     0.5061648139     -1.2143308187
C     -0.0608424147     -0.1133165584     -3.335139558
C     -1.4074857391     -0.1351146899     -2.9763846851
C     1.8972497897     -0.889148097     -2.3606757738
C     0.7409581637     -1.3027344674     -3.1231410773
C     2.6542222989     -0.941799514     0.
C     2.3750529131     -1.653650569     -1.2573077383
C     1.8972497897     -0.889148097     2.3606757738
C     0.7409581637     -1.3027344674     3.1231410773
C     2.3750529131     -1.653650569     1.2573077383
C     0.1346891658     -2.5205947663     2.8346436399
C     -1.9705503626     -1.3419288389     2.3740380644
C     -2.7222978835     -0.9296673566     1.2104178916
C     -1.2657546557     -2.5236177889     2.356033512
C     -2.7222978835     -0.9296673566     -1.2104178916
C     -1.9705503626     -1.3419288389     -2.3740380644
C     -2.6619529952     -1.6951202768     0.
C     0.1346891658     -2.5205947663     -2.8346436399
C     -1.2657546557     -2.5236177889     -2.356033512
C     1.9461991185     -3.039127093     -1.2268350239
C     0.8369503352     -3.449623169     -2.0589617501
C     1.9461991185     -3.039127093     1.2268350239
C     0.8369503352     -3.449623169     2.0589617501
C     1.8354334022     -3.7439717546     0.
C     -1.3565323997     -3.4475440245     1.2323385737
C     -1.9735585817     -3.0055480797     0.
C     -1.3565323997     -3.4475440245     -1.2323385737
C     -0.1093704577     -4.1505408879     -1.2000913481
C     -0.1093704577     -4.1505408879     1.2000913481
C     0.5427598658     -4.4502948333     0.


