60

 C     -2.324075801     -3.6067296603     1.0359061973
C     -1.3716747177     -4.2445770968     0.174452695
C     -0.0987982037     -4.2437028618     0.8238245293
C     -1.5672074821     -2.9784595252     2.1268890798
C     -0.2030199079     -3.3158958753     1.9947743515
C     -1.9536842388     -1.6228648612     2.2452567118
C     -2.9242127955     -2.566862204     0.3428281389
C     -2.8749567431     -1.3480689089     1.1405958691
C     -1.4805340065     -3.6670349463     -1.148746873
C     -2.4135541733     -2.554315068     -1.0356259104
C     -0.2973446895     -3.4858229163     -1.8861571852
C     1.058912771     -4.2177810423     0.0310400694
C     0.9337739097     -3.9746374692     -1.3781024002
C     2.1864532802     -3.4434989831     0.4979677266
C     0.7957549061     -2.3014110686     2.2250062634
C     2.039888518     -2.4634005646     1.4921935854
C     -1.0139925006     -0.6219042427     2.5706667277
C     0.3929259263     -0.9603201518     2.6054667792
C     -1.4410374355     0.7461399325     2.3142835196
C     -2.8714038283     -0.1181373473     0.5170619933
C     -2.3821763928     1.0382715081     1.2703330497
C     -2.1641241566     -1.3129816815     -1.6218220762
C     -2.6994072788     -0.1104348048     -0.9486661795
C     -0.0384671765     -2.1894124761     -2.5269575825
C     -0.9567719254     -1.1304705284     -2.4546547655
C     1.9705022906     -3.0106837587     -1.7448622734
C     2.7892865107     -2.7745912434     -0.6576000968
C     1.3786960089     -1.8969163463     -2.4599758719
C     2.7777867154     -1.2640862163     1.0713489039
C     3.1171866883     -1.4307936659     -0.3132533631
C     1.3431451328     0.1677663587     2.4768798576
C     2.506385654     0.0029671897     1.5961678036
C     -0.5411388165     1.7763002016     2.7012130808
C     0.8935833922     1.4669020284     2.6928813842
C     -0.7474947234     3.0930298797     2.3006856449
C     -2.4195520163     2.3588212199     0.653970743
C     -1.6791233842     3.4388888792     1.2584517554
C     -2.4559502835     1.1062226963     -1.5246811753
C     -2.5554772107     2.3746830416     -0.785842223
C     -0.4589002945     0.2026878855     -2.7052479759
C     -1.4117353508     1.2644536184     -2.543405644
C     1.8417818342     -0.5756654706     -2.2616171941
C     2.8442673918     -0.3573622786     -1.2100725446
C     0.9357107276     0.5251473853     -2.5754558057
C     2.8810861447     1.1067086818     0.7754505238
C     2.9203434717     0.92373899     -0.6362835745
C     1.5411130707     2.6486101572     2.0954121849
C     0.5531749803     3.6857792639     1.9794215836
C     2.4283548425     2.4523865772     1.0388953111
C     -1.0080060007     4.4226767699     0.4398238102
C     0.4141914165     4.449707105     0.8329179211
C     -1.8601173593     3.3323952365     -1.5489869349
C     -1.0318325918     2.5864928115     -2.5340125445
C     -1.0378347955     4.2913963058     -0.9495289525
C     1.3168426001     1.910328284     -2.2359598307
C     2.3191671527     2.0947175193     -1.2437361412
C     2.2004980064     3.1243644542     -0.2329040384
C     1.2176346384     4.1359422208     -0.3444904788
C     0.3374842366     2.9720595466     -2.3499223245
C     0.3476737627     4.0892375157     -1.4634958349


