60

 C     -2.4813853065     -3.7165994723     0.3540257656
C     -1.1556341012     -4.0298695008     0.7251247941
C     -0.7312854745     -3.1591332646     1.7991830786
C     -2.8988971135     -2.6314362205     1.1653731706
C     -1.8351926714     -2.2515137874     2.0620933654
C     -3.4263479767     -1.5941832258     0.3185113423
C     -2.3584098979     -3.1437682863     -0.9848188463
C     -2.9533416623     -1.8547546974     -1.0382612152
C     -0.3214066854     -4.0631591335     -0.4519746673
C     -1.0494748828     -3.3315815535     -1.5006195893
C     1.0235011064     -3.8587850089     -0.2899359036
C     0.6107474947     -2.7079332259     1.871208239
C     1.5447329094     -3.2959939943     0.9461748727
C     0.8683944226     -1.3263302401     2.375856264
C     -1.6057652842     -0.8711404656     2.3725993227
C     -0.2463870943     -0.3700410209     2.559387366
C     -3.4221079024     -0.3098223488     0.7926056719
C     -2.6001428275     0.0566761357     1.9156802144
C     -3.3883198261     0.7888792368     -0.1392480892
C     -2.3602169799     -0.7766506948     -1.7749642576
C     -2.8114796453     0.5646331381     -1.4303226546
C     -0.3921903288     -2.2590625423     -2.2043986361
C     -1.0366135015     -0.9571558353     -2.3506600505
C     1.7326461859     -3.2172826781     -1.3709871163
C     1.0364160518     -2.2979886258     -2.2128012566
C     2.7405122322     -2.578835513     0.5814844384
C     2.8692578662     -2.5595172206     -0.8566194624
C     2.1680224493     -0.8093883212     2.208180904
C     3.1155528344     -1.4363696699     1.2835784579
C     2.4037621888     0.6086936551     2.1594509889
C     -0.0005160198     1.0781059324     2.5019145369
C     1.3656462902     1.5490537124     2.2880993524
C     -2.3393486075     1.4580768896     1.7934091643
C     -3.0272540661     1.9523076935     0.6035758099
C     -1.0930417489     2.0075433759     2.1739908433
C     -2.5637965635     3.0877327592     -0.0700771806
C     -2.1300896207     1.6710319023     -2.0216317231
C     -2.1992231978     2.9475036892     -1.4497141669
C     -0.1877228522     0.22993225     -2.5935648033
C     -0.7737381936     1.4974456113     -2.5311787344
C     1.8674650784     -1.094147185     -2.3423121008
C     3.0620613111     -1.3087269514     -1.5518304914
C     1.2837820133     0.172726417     -2.466460014
C     3.8029027312     -0.3953602234     0.5882023514
C     3.4393761043     0.8273875873     1.1702421398
C     3.6140075704     -0.2494260902     -0.8570938434
C     2.0203676764     1.3468960843     -1.9350932411
C     3.2630421722     1.821004891     0.1480610306
C     3.150055344     1.0913626821     -1.1201861261
C     1.6008621306     2.8376893106     1.6339491806
C     2.4488749267     2.8668311948     0.4188044186
C     -0.8037104881     3.3341501997     1.6321931468
C     -1.5549206557     3.8624177249     0.5568308659
C     0.5658089578     3.704496001     1.3834152063
C     -0.9279578187     3.6516688183     -1.6771285904
C     -0.0139431935     2.7291592181     -2.2515133791
C     1.3319631054     2.6371061665     -1.7705664492
C     1.6750641306     3.4778457114     -0.6474065882
C     -0.5982927293     4.3398687986     -0.4980256516
C     0.6833297333     4.2577302104     0.0061882247


