60

 C     1.4432773588     3.9637511705     -0.3861056067
C     1.9634710381     3.5733970835     0.8399359506
C     0.8736393035     3.5457958538     1.8077053128
C     0.0164194065     4.2205204925     -0.216254126
C     -0.3613634203     3.8680571034     1.1186255751
C     -0.6614769695     3.6660799293     -1.3214939729
C     1.6065974236     3.1194324762     -1.544410602
C     0.3016660411     2.9121191456     -2.1423603961
C     2.4948783406     2.049448213     -1.4766423905
C     2.7404020133     2.3655309005     0.9661557107
C     3.1144357446     1.6844876401     -0.1941707327
C     0.9937086313     2.3455618109     2.5161396641
C     2.1798716167     1.5871190129     2.0480779465
C     -0.1672320434     1.6274821391     2.8666858243
C     -1.5330648099     3.038095503     1.3248672828
C     -1.4388331842     1.9675330701     2.2901238654
C     -1.9474916233     3.1367991435     -1.1253842496
C     -2.3856842775     2.7852446494     0.211208279
C     -2.3577218379     2.0779873594     -1.9717472116
C     -0.0538249115     1.648778108     -2.707932062
C     -1.4444308465     1.2892897833     -2.6854541984
C     2.1931665955     0.8173771455     -2.1584294844
C     0.9143507579     0.5552533056     -2.7271633049
C     3.2596639498     0.2592451176     -0.1573014578
C     2.9117323064     -0.2304744861     -1.473007119
C     2.1948886329     0.1782220168     2.0500578402
C     2.8825122989     -0.5309215559     0.9621138736
C     -0.1043504012     0.2175969144     3.0422616393
C     1.0721313607     -0.514959165     2.7121764857
C     -2.2134960413     0.7472403358     2.2040022584
C     -1.4237382434     -0.3198646889     2.7390980432
C     -3.1884698971     1.5431655555     0.1169458063
C     -3.2421805113     1.1867075618     -1.2367659709
C     -3.0835323755     0.4953219674     1.1027322008
C     -1.8766305599     -0.1187875884     -2.5657788392
C     -3.0321444283     -0.1434038414     -1.67997785
C     0.4584345192     -0.8482923243     -2.7686466393
C     -0.9737737879     -1.1850339559     -2.6009601099
C     2.5887328813     -1.5356380918     -1.6720452104
C     1.4039093572     -1.8554264195     -2.4476448686
C     2.6639644545     -1.9707238477     0.7483981874
C     2.7020862315     -2.4944713827     -0.5860313973
C     0.9221367021     -1.9032708839     2.5136339508
C     1.7960091592     -2.6607528486     1.6791707407
C     -1.594268463     -1.6686744156     2.3535047405
C     -0.4258736222     -2.5241064846     2.4612393699
C     -3.2157210608     -0.8593820941     0.6582794384
C     -3.1501163204     -1.165459972     -0.749763469
C     -2.5443047531     -1.9521853143     1.3286545243
C     -1.3673561766     -2.4489297987     -1.9135201064
C     -2.4069546904     -2.3847978925     -0.9377717557
C     -2.2455387644     -2.9957087091     0.3631753088
C     0.9996805307     -3.1414168833     -1.9953693478
C     1.8827189154     -3.6162918359     -0.969335624
C     -0.3799215189     -3.4633539652     -1.6966748165
C     1.0653324552     -3.8481911074     1.288977118
C     -0.3304500138     -3.7006503899     1.7375250076
C     -1.1973738454     -3.8995106938     0.5910231411
C     1.0641531499     -4.2638556436     -0.0283535216
C     -0.3566518777     -4.2281041282     -0.5059985456


