60

 C     0.425774924     -4.306026777     -0.584493144
C     -0.1034755698     -4.1238284786     0.6925861247
C     -1.403896737     -3.5211879497     0.5564253724
C     -0.4674273962     -3.6691540136     -1.5554152759
C     -1.6413200308     -3.2589715498     -0.8723454384
C     0.2639381299     -2.7178968489     -2.2799138287
C     1.7085016446     -3.6966436295     -0.6729548595
C     1.6818366572     -2.8237059087     -1.8153856088
C     0.9257857627     -3.4432835276     1.4901301988
C     2.0921994847     -3.1837513259     0.606507397
C     0.5221095787     -2.4507494901     2.3481060612
C     -1.8389315206     -2.5612138099     1.5154890527
C     -0.8820686735     -2.0508000204     2.4632084464
C     -2.8643697908     -1.6876102975     1.1152459607
C     -2.3130577312     -2.0878625356     -1.2855750852
C     -3.1954617944     -1.5394704695     -0.3008370417
C     -0.2997218134     -1.4327913115     -2.6105197188
C     -1.6712928992     -1.1569141644     -2.2262978711
C     0.6397885333     -0.3213429435     -2.8211372847
C     2.4431743555     -1.6944784545     -1.7577327622
C     2.0062088669     -0.4594580476     -2.4052417215
C     2.8114156757     -1.9607512423     0.6862241323
C     3.1771558982     -1.3394965215     -0.5630020291
C     1.3502522655     -1.2727371057     2.5742081602
C     2.5344825963     -1.0432489217     1.8075093752
C     -0.8969700853     -0.673534506     2.7900096602
C     0.485936551     -0.2012571499     2.91510877
C     -3.0453411786     -0.3815986898     1.7174636258
C     -1.9485591407     0.2207474644     2.4118864929
C     -3.7816683175     -0.2877801764     -0.4815178955
C     -3.8333625903     0.3921228374     0.8043290798
C     -2.1732177131     0.2318060933     -2.2895297629
C     -3.3113049874     0.6200019273     -1.4885930845
C     0.1437150438     1.0017048769     -2.8483222501
C     -1.2537197227     1.2695316267     -2.6174449908
C     0.9235713483     2.1293849527     -2.4029238144
C     2.7303322235     0.6115072741     -1.8333679556
C     3.434307935     0.0558860096     -0.6607571937
C     2.2186317021     1.9553345836     -1.8255294355
C     2.9602865661     0.2964063732     1.7369811102
C     3.5434443247     0.8333056493     0.4942624348
C     0.839260265     1.1574403407     2.728253161
C     2.1978228827     1.37542187     2.3263644944
C     -1.6075179646     1.6448810989     2.1642568515
C     -0.226276913     2.1098586995     2.3342622269
C     -3.5061548762     1.7073221106     0.5704369248
C     -3.3406561055     1.9189209838     -0.8821586462
C     -2.4448550871     2.3714103866     1.2549089165
C     -1.3415282014     2.6075554264     -2.0471576928
C     -0.013250396     3.1084563714     -1.879330376
C     -2.3211024395     2.8504267513     -1.0628901874
C     -1.857820306     3.2784458441     0.2760539231
C     0.1834526038     3.274144148     1.6000420556
C     0.338109581     3.8192613663     -0.705498191
C     -0.5856965452     3.7268684897     0.4458969335
C     2.6042282416     2.8156608971     -0.7348274979
C     3.2518268503     2.2062829129     0.4166099323
C     2.5420054856     2.5777925834     1.6225197034
C     1.6434089525     3.7194823773     -0.2079905957
C     1.5470611969     3.4601736406     1.2534045615


