60

 C     1.864807888     3.3375980934     0.559546883
C     0.5137285083     3.6511321245     0.7702025021
C     -0.1044494075     3.752688086     -0.5655499197
C     2.1067243577     3.091994813     -0.8546512303
C     0.8915422467     3.3113221274     -1.5516884457
C     2.8617816415     1.9107481282     -0.9941677605
C     2.5631405174     2.3421693517     1.3097707088
C     3.2703573319     1.4909601739     0.3494311818
C     1.9079694569     1.7517523451     2.387741732
C     -0.2081938553     3.0049812125     1.8534243037
C     0.5061927528     2.0616999612     2.6568087747
C     -1.600899491     2.7524644633     1.6681153405
C     -1.433441838     3.4359467403     -0.7466884455
C     -2.2255376618     3.0985835035     0.3988106198
C     -1.8479647222     2.51952961     -1.8269355194
C     0.5208973179     2.380554083     -2.5192662891
C     -0.8862167299     1.9755904882     -2.6624431583
C     2.4898511284     0.9236045122     -1.9748157399
C     1.3437890747     1.2261415894     -2.7710576553
C     2.8049188411     -0.4925496273     -1.711004303
C     3.4500158934     0.151624267     0.6213502159
C     3.3130086139     -0.8564027416     -0.4240823357
C     2.1407897374     0.3576140506     2.6962113651
C     2.9541534485     -0.4185921954     1.864717336
C     -0.1193973089     0.8552510081     3.1226188593
C     0.9052208486     -0.1876608931     3.2020212725
C     -2.2092565411     1.5397016709     2.1219272127
C     -1.4634207285     0.5230980904     2.793683811
C     -3.1591187358     2.1135317367     0.0424924893
C     -2.8835425488     1.6583953661     -1.3080813593
C     -3.2322114397     1.1766484252     1.1224353472
C     -2.9231421204     0.2701828476     -1.6175653775
C     -0.9314776293     0.5897074899     -3.0345627584
C     0.4512038506     0.1670521876     -3.2173740586
C     -1.909295002     -0.3041751069     -2.5128878184
C     2.0493070971     -1.4953200942     -2.4051853276
C     0.8107526989     -1.1460460579     -3.0991225434
C     1.8288698742     -2.7649180235     -1.8309469764
C     2.9243191548     -2.0935203714     0.2140084043
C     2.6123953391     -1.7959415437     1.6056632831
C     2.1615235417     -3.0430558388     -0.4753020042
C     0.5812917966     -1.5098478213     2.9643957315
C     1.4724725758     -2.3534279923     2.190054103
C     -1.820552521     -0.8993062544     2.5699943388
C     -0.7979526637     -1.8932403781     2.6714731522
C     -3.4608671705     -0.1333250197     0.8250720795
C     -3.4621673987     -0.5875429509     -0.5815040337
C     -2.8892246535     -1.1960338174     1.6586152175
C     -3.122224744     -1.929892429     -0.5432512037
C     -2.8421729267     -2.3395274467     0.8511454314
C     -1.530169015     -1.7329508485     -2.4026178484
C     -0.2084188136     -2.1364491648     -2.7806105122
C     0.4602994344     -3.1706498793     -2.0757061767
C     -2.1610532167     -2.5366148812     -1.392705001
C     0.9871277666     -3.6513835866     0.1501811457
C     0.6442682153     -3.291396438     1.4491166011
C     -0.7483495274     -3.0394662239     1.8021068398
C     -1.7554513026     -3.225194926     0.8345816266
C     -0.0651425571     -3.731814411     -0.8817240075
C     -1.3914085798     -3.4660213837     -0.5662200004


