60

 C     -1.2563212623     4.314620604     -0.1690045908
C     -2.1393703487     3.4960602399     0.5570054112
C     -1.4593411073     2.9279916775     1.7002411704
C     0.0138183627     4.2331851738     0.471639331
C     -0.0794183855     3.3933350493     1.6421412593
C     1.013271611     3.911715505     -0.5023961899
C     -1.0767636144     3.62960611     -1.4448161619
C     0.2882269158     3.3730164191     -1.6807384319
C     -2.7841073029     2.5622981358     -0.3483069893
C     -2.0183357426     2.5578425476     -1.5765315356
C     -3.2654021825     1.3787828644     0.1649142096
C     -1.7788434512     1.613531575     2.1322850892
C     -2.8926628174     0.9517374928     1.4901143171
C     -0.7133866514     0.7727237654     2.6943565375
C     0.9989354395     2.5260134314     1.990772218
C     0.6809746268     1.2187030594     2.6040922254
C     2.1574267264     3.2777516931     -0.080688742
C     2.2094403745     2.6415297624     1.2245648491
C     2.8128392351     2.3978662593     -1.0200567776
C     0.6961691674     2.1174654839     -2.2720090687
C     2.0423842081     1.736974642     -2.0128717286
C     -1.6720406751     1.3058843913     -2.187723036
C     -0.2958486771     1.0685731279     -2.5708432342
C     -3.3430272326     0.2174812581     -0.6858523395
C     -2.5422785233     0.1712187061     -1.873187233
C     -3.0240923105     -0.4730950571     1.4898845206
C     -3.4336597507     -0.9307769235     0.1722434162
C     -0.971343584     -0.6284269722     2.8138852133
C     -2.1199128865     -1.255036089     2.205181875
C     0.0845247102     -1.6076598686     2.8161778579
C     1.6970041819     0.2122563833     2.6220751206
C     1.3973468935     -1.1918981587     2.7152228517
C     3.0897437465     1.4980716989     1.0760796303
C     3.4743201263     1.3799812274     -0.2941329669
C     2.8581097035     0.3193592508     1.7803369199
C     2.4546373913     0.3166710748     -2.0391828193
C     3.3680084698     0.1102496011     -0.9692760237
C     0.1615384016     -0.3185801713     -2.7760993326
C     1.5685783383     -0.6929293941     -2.4707846269
C     -2.1417007685     -1.1178757034     -2.3086864052
C     -0.7877036363     -1.3546525509     -2.7727756096
C     -3.0559189781     -2.1939125488     -0.2932536147
C     -2.5659587692     -2.284201451     -1.6123194696
C     -1.7582452383     -2.5958340649     1.7489097159
C     -0.3789546431     -2.8331851472     2.154991883
C     -2.2308482469     -3.0858700819     0.5355253858
C     0.4830374475     -3.5840129942     1.3744771132
C     2.3158536983     -1.9378734723     1.862431541
C     3.1522797851     -0.9937331503     1.201057145
C     3.3465070772     -1.0998521689     -0.2250188672
C     1.8733415642     -3.1180608706     1.2156068355
C     1.8838594879     -2.0107952975     -2.0282278982
C     2.765975388     -2.2122664135     -0.8964474741
C     2.2021316773     -3.2828701672     -0.1410198514
C     -0.4336393159     -2.7438556949     -2.4084297864
C     -1.5055947813     -3.2746797358     -1.6548139612
C     -1.3110266895     -3.8130954828     -0.3449001356
C     0.0092231379     -4.0801036905     0.0727760797
C     0.8709317901     -3.0653964892     -2.0152779316
C     1.0653080894     -3.8519681002     -0.8533168894


