60

 C     1.0614278351     4.5424640017     -0.7616453805
C     -0.1375318353     4.5823672399     0.036825337
C     0.1581159227     4.1960057442     1.3753407663
C     2.0482268346     3.8926929455     0.0367827297
C     1.5271134938     3.7011364593     1.3612738362
C     2.5276129748     2.7203197429     -0.6346054469
C     0.7824362859     3.6271773982     -1.8350463513
C     1.755687692     2.5760318638     -1.8623564675
C     -1.1928864001     3.883518824     -0.6646541448
C     -0.5857245748     3.2393138133     -1.8547566928
C     -2.1114225268     3.1500785494     0.0710700029
C     -0.6390063454     3.2187180486     2.0355831231
C     -1.8529820672     2.8204769959     1.4744136672
C     1.5697582005     2.4295994487     1.9935118768
C     0.235791345     2.1403209755     2.4950197055
C     2.861606088     1.5466598922     0.0968029556
C     2.3541343568     1.3559405654     1.4627049525
C     2.9939352734     0.389050178     -0.6888260202
C     1.408620075     1.2930033902     -2.3539176407
C     2.272541884     0.2527785175     -1.9213938248
C     -0.9788114091     1.9212351477     -2.2592892613
C     0.0306715841     0.9436414119     -2.6442521837
C     -2.743104331     2.0011099406     -0.5198099194
C     -2.2490896065     1.4229985777     -1.738096425
C     -2.3651630381     1.4924603944     1.702619202
C     -3.1576800792     1.1224401832     0.5480389758
C     -0.2100123376     0.8180295292     2.6511738006
C     -1.6072313881     0.4854748784     2.3432621302
C     2.0688940668     0.0213304397     1.9035365123
C     0.7997154013     -0.2281168678     2.5995373891
C     3.1035591659     -0.9167327326     -0.1161824621
C     2.701520348     -1.1231003196     1.2302960886
C     2.0178183666     -1.140388107     -2.1305399023
C     2.7643069211     -1.8893731622     -1.141535592
C     -0.3067559474     -0.4894211529     -2.7527904787
C     0.7317755567     -1.5483243277     -2.5776967687
C     -2.6007470544     0.0725089074     -1.982886409
C     -1.641501794     -0.8718894914     -2.5492801804
C     -3.4762781123     -0.1968646755     0.2826083776
C     -3.4046645232     -0.6415355593     -1.0536523766
C     -1.9719570965     -0.9226376196     2.1099729521
C     -2.9386961529     -1.2628592815     1.1299295006
C     0.3685166709     -1.5661224593     2.7669485171
C     -1.0227209384     -1.9321866586     2.4308908064
C     2.3176407117     -2.469649575     1.589004952
C     1.1908747498     -2.6605638208     2.4761987446
C     2.3534194152     -3.1626039134     -0.7665940777
C     2.2932825221     -3.508325814     0.6235547763
C     0.3567511987     -2.8945932434     -2.2192180208
C     1.1905398582     -3.7022404152     -1.4218606092
C     -1.9765038992     -2.2087783955     -2.0274842776
C     -2.9633619002     -2.0118783467     -1.0236525675
C     -2.7481849277     -2.4528578094     0.3108992742
C     -1.0232519032     -3.1766416924     -1.8075907086
C     -0.9870109821     -3.2232639466     1.8057721254
C     0.3636665344     -3.7102484462     1.9340691754
C     1.0377667269     -4.2582689375     0.8278043468
C     0.3655596425     -4.3431949429     -0.4030215315
C     -1.7239405006     -3.4129889342     0.5742023096
C     -0.9970665313     -3.9332333565     -0.5670130879


