60

 C     2.7473577167     -3.5735276809     0.3514354984
C     1.4883712068     -4.0283076353     0.9080978593
C     0.6422197171     -4.3501804435     -0.1476206169
C     2.5099672441     -3.3001485422     -1.0738691995
C     1.2624367238     -3.821048908     -1.4044260608
C     2.7492865642     -1.9099660715     -1.334660695
C     3.0385987498     -2.3479234102     0.9375752571
C     3.2756285453     -1.3598770276     -0.0845685372
C     1.0124263494     -3.031661678     1.8772528847
C     2.0214995578     -2.0074255771     1.935732217
C     -0.3526145937     -2.6630268527     1.9606646958
C     -0.7125089772     -3.9715105753     -0.1277301256
C     -1.2932791834     -3.3320355371     1.0255369874
C     0.2703162784     -3.0384201369     -2.0455534833
C     -1.0038371762     -3.387029074     -1.4343546788
C     1.80339193     -1.0998394308     -2.0415172804
C     0.5017605464     -1.6585983986     -2.3970610708
C     1.9368231214     0.3420678641     -1.9106374482
C     3.1242040431     -0.0283674064     0.2136867449
C     2.8098328851     0.860190323     -0.882430192
C     1.7106200528     -0.6579651691     2.1747787667
C     2.5488836091     0.3425123021     1.5233962317
C     -0.665681642     -1.2987284491     2.4325516996
C     0.3577816183     -0.2828956519     2.5379224392
C     -2.0282993714     -0.8473532814     2.2871228137
C     -2.565437036     -2.7447482482     0.8002638252
C     -2.9703447438     -1.6008179128     1.5808545271
C     -2.1034310415     -2.5792099867     -1.5941696701
C     -3.0347514592     -2.5029272521     -0.5247310875
C     -0.6497254911     -0.7521340373     -2.4831767819
C     -1.9470528643     -1.2480550073     -2.1761924435
C     0.8865832529     1.2286951532     -2.3908341546
C     -0.4639647056     0.7011935617     -2.4736920302
C     1.0668987999     2.6485537933     -2.2013884747
C     2.8307619305     2.2423675921     -0.5697197682
C     2.1001004272     3.1552194447     -1.3383953699
C     2.2775682007     1.6826055244     1.755069386
C     2.6830438204     2.6559776921     0.8054181897
C     0.0106006896     1.1640290213     2.5494387368
C     1.0055547781     2.123039147     2.3122526174
C     -2.3258544819     0.5677007228     2.061127457
C     -1.3672982781     1.5728104259     2.2499862082
C     -3.746063815     -0.6831333037     0.7433370285
C     -3.6217278702     -1.1741202089     -0.5578536711
C     -2.9459504589     -0.4009418113     -1.5656830815
C     -3.3352948469     0.6337791428     1.0109059093
C     -1.5751325622     1.5620590254     -2.0694217868
C     -2.6973719781     0.9718353553     -1.3611683941
C     -3.0538182932     1.5330736241     -0.0503740596
C     -0.0529075965     3.4896783414     -1.9951422674
C     -1.3262110186     2.949815967     -1.8147237072
C     1.5798785804     4.2394998982     -0.4734634261
C     1.8210835467     3.8052392316     0.8658208272
C     0.7322183489     3.4715605233     1.7501958037
C     0.2614310743     4.4506586337     -0.8640822489
C     -1.6025982178     2.8041594918     1.5646143076
C     -2.4223000647     2.7349611219     0.361648748
C     -1.8220608432     3.5586908271     -0.5833003858
C     -0.5804923337     3.8023827647     1.3552941041
C     -0.8011186645     4.38756829     0.0399603265


