60

 C     -0.1717900777     3.9499206906     0.8777659889
C     -1.4930687594     3.7366284556     0.4748511214
C     -1.5078826376     3.5996752837     -0.9581124125
C     0.6725888194     3.9874546405     -0.3275196364
C     -0.1352763206     3.6254314422     -1.4330700316
C     1.8905038169     3.328276861     -0.0365401363
C     0.4606058298     3.1290418072     1.840483861
C     1.8189515614     2.8716780212     1.3595812382
C     -0.274481831     2.0954429522     2.5252454154
C     -2.2353972893     2.6608795373     1.0552929209
C     -1.684141449     1.9251144238     2.1519010715
C     -2.34963416     2.5061486111     -1.2553085097
C     -2.8965066245     1.9477999474     -0.0170670338
C     -1.9638240179     1.5992738744     -2.2503550481
C     0.3324600518     2.5804907481     -2.3258739031
C     -0.6315975993     1.6450437365     -2.82257025
C     2.4561785897     2.4754908465     -0.992286304
C     1.6543819064     2.0711493508     -2.1397842116
C     3.2277582321     1.3332885018     -0.5695058651
C     2.4786616265     1.724762109     1.7336436589
C     3.303176064     0.9931801078     0.7816970603
C     0.4839947414     0.9255416652     2.9937684678
C     1.837588208     0.7575354868     2.5988313412
C     -0.2250385423     -0.2876268884     3.297226007
C     -2.295898405     0.6491876383     2.3669954692
C     -1.6052961084     -0.3443611215     3.090057235
C     -3.2435187738     0.5725330718     0.0822389098
C     -3.1031264211     -0.0154000749     1.3615963542
C     -2.4357607561     0.2337840586     -2.2381702762
C     -3.1188237277     -0.3044416696     -1.1074854624
C     -0.2855265974     0.2955515297     -3.1604296216
C     -1.4603953756     -0.5438943244     -2.9585760804
C     1.9814012177     0.6961337267     -2.445837139
C     3.0299181466     0.2691326063     -1.5458300337
C     1.0108282642     -0.2371972486     -2.938710682
C     3.1667276502     -1.0580049891     -1.1834351375
C     3.2996342447     -0.3954509652     1.1777364947
C     2.3711561882     -0.5477934229     2.2688707133
C     3.3902045964     -1.4039199666     0.204283962
C     0.293619347     -1.6048642994     2.9429400955
C     1.5706844054     -1.7497798219     2.3935533958
C     -1.9779357667     -1.6655597807     2.5923080177
C     -2.896803302     -1.4651858006     1.51517137
C     -0.8305278386     -2.4412026167     2.4661989926
C     -3.0161677734     -1.7216679208     -0.9195387951
C     -2.8308083228     -2.2992599522     0.4200461376
C     -1.3289758347     -1.8972903515     -2.7194969014
C     -2.2252687107     -2.4947901422     -1.7898550983
C     1.1572099329     -1.675660262     -2.6036641747
C     2.2770602224     -2.0738130685     -1.7740459086
C     0.0003552767     -2.489776974     -2.5280914997
C     2.7211635257     -2.6460127093     0.425292709
C     1.7750858778     -2.8239730128     1.4317969908
C     2.1387419019     -3.1048264067     -0.8355329747
C     -0.68987796     -3.3185424979     1.3227100358
C     -1.7797703768     -3.3143503673     0.3548591153
C     -1.4748816908     -3.4687649969     -1.0180864579
C     -0.1427513818     -3.523582854     -1.4998796854
C     0.6221657378     -3.5551531504     0.8523343284
C     0.8879486493     -3.7134240749     -0.5646190086


