60

 C     0.0713942828     4.751522763     -0.7497181584
C     -1.2304734781     4.5822572389     -0.3800114707
C     -1.3158240694     4.1304736426     1.0021548872
C     0.9115469022     4.368197012     0.3875736062
C     0.0438056419     3.8796556192     1.4530877721
C     1.8195815705     3.4336162478     -0.1005011715
C     0.3346152153     3.8030537593     -1.8501917017
C     1.4573822949     3.0831828172     -1.523414362
C     -1.8679712769     3.5589023253     -1.2407433261
C     -0.8834559071     3.0220962031     -2.1286221556
C     -2.228387619     3.0560815491     1.0190286208
C     -2.5683358768     2.6882727045     -0.3920257219
C     -2.0355994692     2.0093481692     1.9260045222
C     0.35682171     2.6324586956     2.1313231326
C     -0.7244798255     1.7975001012     2.4998026103
C     2.3414602546     2.3860608135     0.6982888292
C     1.6164440078     1.9169880537     1.8468068395
C     3.1442301784     1.465213479     -0.0425248879
C     1.630562698     1.7223906176     -1.9728981256
C     2.7207137969     1.0678204076     -1.4165764835
C     -0.8106079363     1.6032073199     -2.3257269267
C     0.4914383613     0.9372708961     -2.4307070039
C     -2.7060872306     1.3315918259     -0.7387002567
C     -1.9081488171     0.7920979639     -1.8276793329
C     -2.574392288     0.7275114157     1.6457503574
C     -3.040346356     0.4184955041     0.3383811899
C     -0.5805887481     0.3625083526     2.7182917863
C     -1.7821680988     -0.287550455     2.3234562998
C     1.820333881     0.5213071774     2.2704198332
C     0.6631006516     -0.3109830061     2.6280150821
C     3.638658008     0.3549200989     0.5789812285
C     2.96833706     -0.1540780033     1.7564061451
C     2.9093531692     -0.3353961658     -1.5432115437
C     3.6843380043     -0.7476394054     -0.4068486023
C     0.5946200097     -0.5085619594     -2.4365736398
C     1.8460518379     -1.165593664     -2.0283947143
C     -1.8769668945     -0.6296588473     -2.0346666523
C     -0.6452061823     -1.2893582809     -2.4584210898
C     -3.1491572347     -0.932968723     0.026319611
C     -2.835602111     -1.4162426862     -1.2938612944
C     -1.8615735645     -1.658506759     1.9880217225
C     -2.8432700896     -1.9911241425     0.9851585789
C     0.6146169037     -1.7589959116     2.3660254724
C     -0.6514328234     -2.458942426     2.0855954948
C     2.9560898779     -1.5711763262     1.6187431962
C     3.3989659     -1.9187904652     0.2408735344
C     1.8291240234     -2.3547169711     1.8688118618
C     1.8076368019     -2.5439960954     -1.5263454519
C     2.5382232153     -2.8816543344     -0.3192780821
C     1.7446882099     -3.361904834     0.8022636057
C     -0.5520555619     -2.7060542227     -2.3015368651
C     0.6340982058     -3.2969141464     -1.7675535172
C     -2.7418635261     -2.8173738325     -1.2028336126
C     -2.746559269     -3.1776630872     0.2502469233
C     -1.6779492607     -3.4989802103     -1.7732149654
C     -0.6230973422     -3.6983918848     1.3280979693
C     0.5823748742     -4.0397308975     0.5925395859
C     0.1874253425     -4.2935416499     -0.7843046527
C     -1.7111862257     -4.0954752616     0.4691755497
C     -1.1852462083     -4.502038019     -0.8485602796


