60

 C     1.3584232731     -4.5278483714     0.7540161096
C     -0.0721754163     -4.5720051749     0.7518155677
C     -0.5704180303     -4.5035978976     -0.5871425114
C     1.7358492702     -4.1117377298     -0.5866373142
C     0.5690336096     -4.1091684967     -1.4019018531
C     2.4211068651     -2.8727306926     -0.5205169166
C     1.6943135195     -3.4319090128     1.5980638351
C     2.4942299479     -2.48632992     0.8995385608
C     -0.606792397     -3.6462643833     1.7371993016
C     0.5339983829     -2.8976877588     2.2840160032
C     -1.7816105253     -2.9599992717     1.4387200345
C     -1.6603058953     -3.661394701     -0.9207764252
C     -2.3688717672     -3.0032667033     0.1042168532
C     0.1873523684     -3.0092422953     -2.2480486487
C     -1.2386985046     -2.8370800185     -2.0667219938
C     2.1983659454     -1.8348092455     -1.4927731693
C     1.016795159     -1.8511304602     -2.366937727
C     2.6822799538     -0.5822235929     -1.1226710178
C     2.5070123455     -1.1350489231     1.2931075068
C     2.9637052168     -0.2335735109     0.2861636849
C     0.4419234208     -1.5175016779     2.5848839922
C     1.5490598588     -0.6176897719     2.2454844661
C     -1.970500955     -1.6220322142     1.9512366673
C     -0.8995824788     -0.9314102145     2.6082123835
C     -2.9577610335     -1.6973997947     -0.129070994
C     -2.8322948446     -0.8916747424     1.0730832021
C     -1.808152011     -1.5992126583     -2.2837558995
C     -2.7909162521     -1.0545553037     -1.3547593825
C     0.4064869133     -0.5610762898     -2.7224498944
C     -1.0077455245     -0.4957833585     -2.733036638
C     2.3233241144     0.6272576965     -1.7823496345
C     1.1131341832     0.7104285983     -2.5055862564
C     2.9193951847     1.1446423922     0.4286036349
C     2.7290617746     1.7091851209     -0.9159805932
C     1.3901730971     0.8294321221     2.343477074
C     2.2215887437     1.7468911621     1.5411331537
C     -1.0223028901     0.4602399456     2.6982014068
C     0.1305109655     1.3378845363     2.7550308301
C     -2.8318903344     0.5260377249     1.0346009082
C     -2.0827617431     1.186366186     2.04899339
C     -2.7202395185     0.3773149431     -1.4252021651
C     -1.6926970843     0.7316431627     -2.3565044796
C     -2.9160696916     1.1984548306     -0.2678467349
C     0.4050078502     2.0110893109     -2.482437424
C     -1.0492120267     1.9813473631     -2.3212961143
C     2.2464351909     2.9623808932     -1.0917796101
C     1.0849595917     3.1606267294     -1.9706743177
C     1.8499261106     3.1079331383     1.3857299806
C     2.0543626738     3.7782882614     0.0992403488
C     -0.3021744936     2.673307021     2.4340434031
C     -1.6792983061     2.5555813511     1.9218624202
C     0.5756149427     3.6110755869     1.8888248225
C     -2.4967415164     2.5335957792     -0.3782177512
C     -1.6935869361     2.9850230746     -1.5073713541
C     -2.0453954171     3.2913323545     0.7878239104
C     0.3717496906     4.2788609065     -1.4103026798
C     1.0282980215     4.678524364     -0.1525355803
C     0.0641571987     4.5777156009     0.9261243631
C     -0.9918604602     4.1515837368     -1.130962585
C     -1.1775789301     4.3313403931     0.3327997506


