60

 C     1.615758265     -4.2856642884     -0.1626034964
C     0.9241669691     -4.3993565481     1.0186086637
C     -0.4880173372     -4.1334536072     0.7304680988
C     0.6678629143     -3.9136155676     -1.2474586993
C     -0.6545274984     -3.8862799406     -0.6997642846
C     1.1726779268     -2.7471241876     -1.8466219901
C     2.635898716     -3.2734752376     -0.055763687
C     2.4351592191     -2.393864413     -1.1556758262
C     1.41443039     -3.3642711136     1.9314997948
C     2.5077472973     -2.6843798141     1.2705208325
C     -0.8951115802     -3.1126552966     1.5884806684
C     0.3071369468     -2.5643816041     2.2670910176
C     -1.9602735851     -2.2537663369     1.2307644543
C     -1.5544188298     -2.886316483     -1.1131274092
C     -2.4859140163     -2.3661762377     -0.1140445817
C     0.2964256698     -1.6974009343     -2.2960495401
C     -1.1106544651     -1.9037749243     -2.1054085425
C     0.8167497222     -0.3317424821     -2.4108960462
C     2.8020686256     -1.059333566     -1.0660969118
C     2.1510404128     -0.0720189832     -1.927924262
C     2.6344426067     -1.2926962196     1.3942559332
C     3.2035153727     -0.5915329553     0.2541052579
C     0.3976622747     -1.13610486     2.437710206
C     1.6640766348     -0.5029733459     2.1590722725
C     -2.0732574056     -0.9914899768     1.9313513123
C     -0.8334889905     -0.3583515374     2.4205906659
C     -3.1897772967     -0.1834510058     1.5699411774
C     -3.4369389869     -1.4034322692     -0.5332983844
C     -3.9296277604     -0.4558325625     0.3784379089
C     -1.9753784048     -0.8045486013     -2.3873852062
C     -3.2255686677     -0.7120558503     -1.784184955
C     -0.0962300754     0.8162195252     -2.5356109417
C     -1.4699222594     0.5526039372     -2.5692627301
C     0.3202580492     2.1825497582     -2.1641955784
C     2.5883667091     1.2660452154     -1.802767353
C     1.7106954285     2.4091424259     -1.9958651287
C     3.4848551877     0.751099389     0.4040075368
C     3.5359563458     1.6119543901     -0.7630876808
C     1.769173388     0.9491447133     2.1448277933
C     2.901837392     1.5236122973     1.4753386798
C     -0.7307072485     1.0922526143     2.4249778246
C     0.5649930676     1.7472423507     2.3066279391
C     -3.1008401999     1.2380602527     1.7066797443
C     -1.9115644385     1.8552972506     2.0662155119
C     -4.1017116642     0.8462852023     -0.3357459553
C     -3.5804514738     0.6989519897     -1.626815332
C     -2.4697621095     1.4896609286     -2.0508296518
C     -3.6328430147     1.8728746002     0.4804761517
C     -0.6269499558     3.0230990173     -1.4306962219
C     -1.7686147144     2.9933507999     1.15214367
C     -2.0176139404     2.5969805085     -1.2681264412
C     -2.6595821904     2.7894378095     0.0185913169
C     0.5917226968     3.0996617684     1.7550035047
C     -0.069537477     3.8392271428     -0.3881807871
C     -0.5557052848     3.5390220543     0.9636316506
C     2.2128524624     3.4544905648     -1.1354620854
C     3.3513200596     2.9420428267     -0.3766165627
C     2.8986017338     2.8866212834     1.0005683961
C     1.3060319608     4.0572554578     -0.2589730718
C     1.7215059265     3.6373343762     1.1265518606


