60

 C     0.6270604858     -4.2640448925     1.0635938546
C     0.2279787049     -4.2687827559     -0.353139823
C     1.1886564726     -3.5505942757     -1.1060215866
C     1.8095915321     -3.5318409854     1.1825298106
C     2.276979406     -3.2396262636     -0.1597673952
C     1.6124617951     -2.4063878403     2.0894123886
C     -0.3960080782     -3.5814616987     1.7678079542
C     0.2082627038     -2.3955295663     2.4047065488
C     -1.1411829662     -3.9117182909     -0.4290678059
C     -1.5152901587     -3.4073871172     0.9232930857
C     -1.5656439807     -3.1740530237     -1.5288261281
C     0.7703954628     -2.5223251465     -2.0521283459
C     -0.6073436389     -2.4433586318     -2.3347168563
C     1.5707948304     -1.2965138633     -2.2161312855
C     3.0001883859     -2.1102124789     -0.3352683801
C     2.8174462767     -1.2532360351     -1.5232090563
C     2.315854889     -1.2004576701     1.8955264351
C     3.2685804288     -1.2082643505     0.7973902641
C     1.6841196764     0.0642261164     2.2548129577
C     -0.4946882822     -1.18847513     2.5048372061
C     0.2661796584     0.067335322     2.5880279481
C     -2.338052285     -2.2554546767     1.0722591501
C     -1.8957941994     -1.189084856     2.0071074039
C     -2.7133410759     -2.3431320691     -1.3699863253
C     -3.1175347139     -1.8818753884     -0.0669610143
C     -1.23306031     -1.1592573824     -2.6686973109
C     -2.5733169576     -1.1894099258     -2.1734977553
C     0.9388250837     -0.0033791821     -2.5510780171
C     -0.5164923202     0.0568949801     -2.6864071953
C     1.6556795802     1.2387894674     -2.2938745135
C     3.4305208023     -0.038670983     -1.2160607341
C     3.6637442526     -0.0110002956     0.23618916
C     2.898065522     1.2021001719     -1.5780004258
C     2.3001012322     1.3172593341     1.7870297845
C     3.2694881762     1.2515169301     0.7267832165
C     3.1059176518     2.1113235453     -0.4401571243
C     1.5718496676     2.5429904017     1.8786231202
C     -0.4821996069     1.3263323805     2.5919918081
C     0.1701882273     2.5531873797     2.2960548368
C     -2.5587946684     0.0285783357     1.9618865953
C     -1.9042836199     1.2770360596     2.3532366182
C     -3.5885495925     -0.5308505994     -0.2087235464
C     -3.1516344153     -0.0568108047     -1.5056022726
C     -3.4931763992     0.335599251     0.8751900225
C     -1.2666636689     1.3042819322     -2.3456144532
C     -2.5855946392     1.2198199807     -1.6681269675
C     0.9186945496     2.4732826068     -2.1731827627
C     -0.5431056434     2.478707908     -2.1586121159
C     2.3676248872     3.2626080631     -0.3384750786
C     1.7599769215     3.5756024069     0.9276194273
C     1.3776443302     3.5308082694     -1.35621539
C     -0.4977241302     3.619957763     1.5730797772
C     -0.9667542711     3.5412800711     -1.2292366445
C     0.4626754892     4.1821127197     0.678966205
C     0.2309033809     4.134856832     -0.7069480959
C     -2.5234063275     2.3259933346     1.6394386761
C     -3.3715154985     1.7064244171     0.6098155212
C     -2.8993033441     2.1784525448     -0.6341188465
C     -1.8014892135     3.3949176429     1.0878648675
C     -2.0245058574     3.3109197119     -0.3672214914


