60

 C     2.9540928414     -2.4166256365     -1.1031724005
C     1.9165540853     -2.8761120125     -1.8737574076
C     1.055008083     -3.7135988501     -1.0309592237
C     2.6749248051     -2.8066935347     0.30301663
C     1.4487925846     -3.5292549669     0.3415868106
C     2.9138045131     -1.6858999502     1.0967169493
C     3.3374385549     -1.059097122     -1.1398805332
C     3.5721985002     -0.6767545082     0.2454469495
C     2.6591017411     -0.141106059     -2.0237396571
C     1.0756790387     -1.9600600797     -2.6061436306
C     1.405589036     -0.5748190893     -2.6712221903
C     -0.260499798     -3.5065993601     -1.4226464784
C     -0.2854210846     -2.4102256109     -2.4143753609
C     -1.2521956128     -3.55600855     -0.4218031107
C     0.4712884548     -3.1800194503     1.336782472
C     -0.8955792185     -3.3940355217     0.9685629185
C     1.9790536657     -1.2752051767     2.1151210708
C     0.7837632551     -2.0863426084     2.2843170273
C     1.96958815     0.1686390734     2.4781974639
C     3.5408953912     0.6458146657     0.5896425554
C     2.7407082166     1.099191764     1.7278109083
C     2.8055271612     1.2322746276     -1.6815154001
C     3.3925899779     1.6006142321     -0.4512993015
C     1.7689571267     2.2164328645     -1.9744744028
C     0.301300552     0.384274918     -2.8266487992
C     0.5549016444     1.8282984361     -2.5774677192
C     -1.3531267617     -1.5002830167     -2.4404680908
C     -1.0611992983     -0.1043654817     -2.7526802074
C     -2.452224502     -2.8350312325     -0.6554906433
C     -2.5243016101     -1.8264153633     -1.6239108987
C     -1.9971940277     -2.6517469979     1.5964387832
C     -2.9844755219     -2.3454282632     0.6152379047
C     -0.3329730861     -1.4762240434     2.965181186
C     -1.7225373651     -1.7071662664     2.5628512514
C     0.8087844495     0.705534837     3.1157851639
C     -0.2602850058     -0.163567065     3.4426114037
C     0.2222841314     1.9571355522     2.7130821102
C     2.2208601623     2.4085039095     1.3957328266
C     2.6686054323     2.7320434104     0.0765454632
C     1.7829129037     3.2164809277     -0.8937480458
C     0.8862719579     2.8051245357     1.8013305675
C     0.5624735349     3.7830895236     -0.4646602194
C     0.0815443856     3.5499324626     0.8915384547
C     -0.5692485398     2.731045751     -2.3631631561
C     -0.5282514616     3.7228921532     -1.3382983939
C     -2.1181915953     0.8452139812     -2.447036543
C     -1.8929665093     2.2018505169     -2.3659676873
C     -3.2894291684     -0.7597982935     -1.0008052757
C     -3.4341376654     -1.0273691022     0.4337859622
C     -3.1324859656     0.5153548637     -1.4193084213
C     -2.3899984396     -0.4080508325     2.5284844152
C     -1.5192447669     0.5102702333     3.1816326928
C     -1.2381150624     1.7696823621     2.6573283506
C     -3.1341406963     0.0167742505     1.3882225979
C     -1.372588704     3.3539523109     0.8270941191
C     -1.7459360989     3.5853329072     -0.5252332855
C     -2.605774473     2.7149913067     -1.1620200244
C     -3.2157172625     1.636310309     -0.4889032058
C     -2.0130341804     2.3114850993     1.5724871807
C     -2.9742204547     1.4053620604     0.9082277251


