60

 C     -0.97385973     4.588086788     -0.0705581257
C     -1.6866749341     3.8598038292     0.975824938
C     -0.7968137124     3.5596357149     1.9936260126
C     0.4511944813     4.4640082269     0.2272472779
C     0.5668576375     3.9516517775     1.5298380725
C     1.1261379372     3.7670799025     -0.8490921753
C     -1.1845893258     3.8566480943     -1.2356548649
C     0.091956846     3.4827852986     -1.8343912288
C     -2.429213971     2.7529557415     0.3847196
C     -2.1721620662     2.7939894474     -1.0306161221
C     -2.5141192261     1.4896047446     1.0309594478
C     -0.7080308864     2.2476914583     2.5310324123
C     -1.6497730366     1.2277225862     2.1738350375
C     1.4333796519     2.8903400361     1.8130213278
C     0.6688003851     1.8717477818     2.5581070963
C     2.114688328     2.7694337697     -0.5808518702
C     2.3503212726     2.4176895454     0.8246385433
C     2.3037100862     1.6895246637     -1.5756325661
C     0.127246304     2.3307393071     -2.58805894
C     1.2979212065     1.4729542342     -2.5614852793
C     -2.1182198228     1.6081236826     -1.8107607184
C     -1.0339929304     1.4808240397     -2.7352926766
C     -2.9211164262     0.3594849213     0.1958111709
C     -2.6950523583     0.3982202946     -1.2434068498
C     -2.9882588362     -0.8920350729     0.8225568228
C     -1.3014782152     -0.135534099     2.4968677931
C     -2.2259159726     -1.1192667259     2.0550430891
C     1.0782579926     0.5080376649     2.6364211213
C     0.0709274167     -0.5460611934     2.7444300188
C     2.9460528094     1.1656443387     1.1275156511
C     2.3446959385     0.221831783     2.0977590742
C     3.0516198534     0.524742235     -1.2268813464
C     3.5130988671     0.3818995611     0.1275893173
C     2.7257705336     -0.7957500209     -1.7134257959
C     0.9052750014     0.1522325012     -2.9632882209
C     -0.5392178502     0.178849504     -3.0601418807
C     1.5645136873     -1.0203965339     -2.5004145003
C     -2.4355486265     -0.8419302888     -1.8949135377
C     -1.2785891145     -0.9489558292     -2.7444862349
C     -3.0095942564     -2.1407662017     0.0923973523
C     -2.6064440986     -2.1153289849     -1.2492137581
C     -1.9036134189     -2.4716776789     2.1390401278
C     -2.464363782     -3.1582577432     0.9557102621
C     0.46658863     -1.9363837459     2.5298122684
C     -0.5736686783     -2.9148654099     2.3539009373
C     2.683721506     -1.124536338     1.716774913
C     3.4280413295     -1.0072306367     0.5016560542
C     3.0404861865     -1.7387170186     -0.6342850606
C     1.775418836     -2.200613041     1.8998193463
C     2.2946099771     -2.8905388776     -0.4318707676
C     1.838343444     -3.2352080555     0.8831411728
C     0.7800620576     -2.2752818118     -2.3271308906
C     -0.6364063206     -2.2268839255     -2.4986279472
C     -1.5495220154     -3.0276551079     -1.7065849942
C     1.2561193482     -3.2795714729     -1.4073882229
C     -1.5595390252     -4.0906493361     0.5178926224
C     -0.3995394343     -4.0460249037     1.4502904757
C     0.7327924514     -4.1199796658     0.6871076997
C     -1.0460774898     -4.0187214592     -0.8464236089
C     0.3727857581     -4.1451618953     -0.7535088728


