60

 C     0.6905643508     -4.3605901782     0.
C     -0.0614727316     -4.0343521855     -1.1481522516
C     -1.3377768181     -3.5113775457     -0.7291373469
C     -0.0614727316     -4.0343521855     1.1481522516
C     -1.3377768181     -3.5113775457     0.7291373469
C     0.7467150963     -3.1692909003     1.9833536013
C     1.841308514     -3.4483555563     0.
C     1.939797288     -2.7539619374     1.2290232725
C     0.7467150963     -3.1692909003     -1.9833536013
C     1.939797288     -2.7539619374     -1.2290232725
C     0.1390162042     -2.2550519591     -2.8146775792
C     -1.9385703598     -2.4279611077     -1.4559899789
C     -1.2529742102     -1.9122547214     -2.6292661836
C     -2.695161575     -1.4737248183     -0.7353678861
C     -1.9385703598     -2.4279611077     1.4559899789
C     -2.695161575     -1.4737248183     0.7353678861
C     0.1390162042     -2.2550519591     2.8146775792
C     -1.2529742102     -1.9122547214     2.6292661836
C     0.8392580763     -1.0570604573     3.2014354465
C     2.3674182651     -1.3972002139     1.257446234
C     1.9588550599     -0.6086046141     2.4332252088
C     2.3674182651     -1.3972002139     -1.257446234
C     2.6726703904     -0.7225608263     0.
C     0.8392580763     -1.0570604573     -3.2014354465
C     1.9588550599     -0.6086046141     -2.4332252088
C     -1.432538306     -0.5739729131     -3.109342699
C     -0.1524430693     -0.1164271117     -3.6573115579
C     -2.8450631108     -0.1240328959     -1.1763735713
C     -2.2375065009     0.3523395598     -2.3788996978
C     -2.8450631108     -0.1240328959     1.1763735713
C     -2.9128843012     0.7101055785     0.
C     -1.432538306     -0.5739729131     3.109342699
C     -0.1524430693     -0.1164271117     3.6573115579
C     -2.2375065009     0.3523395598     2.3788996978
C     0.156223271     1.2371190277     3.7293827108
C     2.2038592494     0.7965685019     2.4502312358
C     1.4298959573     1.6609938018     3.2337112466
C     2.7588711968     0.7485128714     0.
C     2.5644598217     1.4857247625     1.1963366287
C     2.2038592494     0.7965685019     -2.4502312358
C     2.5644598217     1.4857247625     -1.1963366287
C     0.156223271     1.2371190277     -3.7293827108
C     1.4298959573     1.6609938018     -3.2337112466
C     -1.8867365368     1.7553360198     -2.4360276759
C     -0.8070775453     2.1829780451     -3.2069374886
C     -2.4440879844     2.066288149     0.
C     -1.9330991535     2.5914290369     -1.2168153268
C     -1.8867365368     1.7553360198     2.4360276759
C     -0.8070775453     2.1829780451     3.2069374886
C     -1.9330991535     2.5914290369     1.2168153268
C     1.2236324313     2.8821212747     2.4334478908
C     1.9419423088     2.7786220735     1.1926135872
C     -0.1040857901     3.2348504459     2.4519771204
C     -0.7913930381     3.4610873303     1.2099971001
C     1.9419423088     2.7786220735     -1.1926135872
C     1.2236324313     2.8821212747     -2.4334478908
C     -0.1040857901     3.2348504459     -2.4519771204
C     -0.7913930381     3.4610873303     -1.2099971001
C     1.3845873649     3.31896427     0.
C     -0.0613780984     3.6798428123     0.


