60

 C     -1.0595067496     -4.2823051284     -0.6092587257
C     -0.7985622633     -4.1485055049     0.7442316583
C     0.6459357223     -4.0225480204     0.9629653695
C     0.262059431     -4.149540776     -1.2874253087
C     1.2908862744     -3.8872567414     -0.3036916085
C     0.1079531806     -3.28462756     -2.3386234835
C     -1.9928453542     -3.3863515084     -1.2503261264
C     -1.3089736893     -2.8326179766     -2.3844811717
C     -2.7463606085     -2.4920383574     -0.4644615717
C     -1.4629714826     -3.1579556631     1.5604809385
C     -2.4858511505     -2.4127206586     0.9768426987
C     0.838470404     -3.0741363342     1.9901583559
C     -0.4449909185     -2.4755909713     2.3710328267
C     1.9558709878     -2.2593820679     1.9260418818
C     2.2306649969     -2.8140516864     -0.5028032191
C     2.7446977519     -2.2249127663     0.697997113
C     0.9535686877     -2.1460396176     -2.5257185307
C     2.0625166765     -1.8962109312     -1.6545616515
C     -1.3171666647     -1.4729142141     -2.6681695242
C     0.0827392351     -1.0573312367     -2.8745173471
C     -2.9343263368     -1.1296967269     -0.8977050031
C     -2.2011457227     -0.569239764     -1.976373307
C     -2.6673741435     -1.0558355151     1.4053643865
C     -3.0951143938     -0.2888334396     0.2756556293
C     -0.5363609667     -1.1106943203     2.7068699391
C     -1.7830884267     -0.4360849494     2.3425232652
C     1.9236683684     -0.9298820413     2.5020370797
C     0.6971688436     -0.2872104814     2.8236194972
C     3.3631202436     -0.9644828988     0.6677352786
C     2.9272684327     -0.1808022355     1.8438546057
C     2.5294872289     -0.5165711694     -1.587331681
C     3.3044986715     -0.1159469963     -0.4355597055
C     0.4490021629     0.2740268701     -2.7444438057
C     1.7936298173     0.5429232128     -2.2588416446
C     -1.8897558137     0.8535648901     -1.9865431788
C     -0.6307879455     1.2728699393     -2.5831209464
C     -2.9827743468     1.108354487     0.2329264292
C     -2.5217482225     1.7422974067     -1.0120335952
C     -1.8414667811     0.9599710656     2.4008670929
C     -2.6319369713     1.7194584878     1.4838520225
C     0.6432369901     1.1679580682     2.6855720106
C     -0.6570551857     1.7831399038     2.7277860675
C     2.7999695337     1.1601337445     1.5159924681
C     3.1995901285     1.2489751975     0.1041485893
C     1.6852905995     1.9222276752     1.9900996706
C     2.0837804571     1.9082520378     -1.9390734021
C     2.7009586742     2.2441217552     -0.6556848968
C     -0.2358998656     2.629457036     -2.4653169729
C     1.1509015486     2.9119695303     -2.1731969373
C     -2.1051739639     3.1089226005     -0.9431220729
C     -1.0227837457     3.5522016524     -1.7310459649
C     -2.1293153595     3.0545064799     1.5118479431
C     -0.8734964316     3.0795893848     2.2821238338
C     -1.9564470157     3.7700542517     0.3595169183
C     1.3772942474     3.187544801     1.2780960072
C     1.9482635847     3.3515104961     -0.0457043163
C     1.1989270014     3.9255200498     -1.102220632
C     -0.1131329199     4.3637482157     -0.8793026326
C     0.101288672     3.8051457842     1.4999011456
C     -0.6262951145     4.4138729349     0.4105182413


