60

 C     -1.1124116665     -4.1270945447     -0.4277083731
C     -0.5908650324     -4.1678613265     0.8253053064
C     0.8961630968     -4.1320246781     0.7231821982
C     0.0330476291     -4.0459171961     -1.3873168469
C     1.2418871569     -3.8282808836     -0.6489186232
C     -0.3550613832     -3.1668310458     -2.3664436599
C     -2.091260259     -3.1114626371     -0.7983454265
C     -1.7179612849     -2.6764904191     -2.0775840202
C     -2.5203842534     -2.1045072478     0.1660709148
C     -0.9979256358     -3.1862660842     1.8243546366
C     -1.9536853389     -2.1456029804     1.4998601604
C     1.3385530521     -3.3565899517     1.7717902993
C     0.1666970916     -2.823305184     2.5071663564
C     2.2292403639     -2.2839084448     1.567379178
C     2.0382165213     -2.6579889056     -0.9253333343
C     2.6679312306     -1.9974637207     0.2262845168
C     0.4298529591     -2.0273590868     -2.7076261718
C     1.6572203944     -1.7628856997     -2.0410500093
C     -1.7877428974     -1.3219727715     -2.4725468528
C     -0.4956471992     -0.93160563     -2.9730017862
C     -2.9798262513     -0.8153071028     -0.3787978939
C     -2.5821719289     -0.4093134414     -1.7349218829
C     -3.250098302     0.2186473861     0.5295931148
C     -1.8215841678     -0.8878553638     2.2336328912
C     -2.6960569479     0.157232781     1.8574660389
C     0.4573630683     -1.4803878701     2.8490440252
C     1.7832148226     -1.1617299019     2.4027039127
C     -0.5553785104     -0.4932334072     2.8400346809
C     2.1575790681     0.165475265     2.148476181
C     3.1919824666     -0.7129519747     0.0558087846
C     3.1458270919     0.3118209938     1.1187737446
C     2.152942271     -0.3810987588     -2.1225940809
C     3.175462699     -0.0068908578     -1.2054745095
C     -0.0942250591     0.4130218586     -2.9486050004
C     1.3065430412     0.7072506774     -2.6722732108
C     -2.3289508856     0.9578372444     -2.0024884058
C     -1.1187444586     1.36505543     -2.6550916333
C     -3.2758005959     1.6474502009     0.1419087283
C     -2.7400500074     2.0159315232     -1.0972510656
C     -2.4415229426     1.4798042508     2.29016372
C     -2.91924988     2.4237770564     1.2874349459
C     -0.1262509453     0.9058556908     2.8480478346
C     1.226388935     1.2576417416     2.4245814246
C     -1.1578542238     1.8903858212     2.7518898827
C     1.4533676481     2.5514148666     1.7552847177
C     3.3745086772     1.5425143875     0.5299183322
C     3.4560981711     1.3532064515     -0.9136666791
C     2.5189394639     2.6751944239     0.7988006433
C     1.5987215992     2.062135588     -2.3370964713
C     2.706886847     2.3753150372     -1.4780707271
C     2.2777770265     3.317716933     -0.4624750301
C     -0.7901662792     2.6864836227     -2.1658569622
C     -1.790062103     3.1105786059     -1.2053213532
C     0.5471236037     3.0204475613     -2.0170597247
C     0.9702545986     3.7464283898     -0.8045687789
C     -1.9866571895     3.4568843978     1.2025369693
C     -0.9052193497     3.1660909129     2.15289852
C     0.320818094     3.4303618366     1.5413098154
C     -1.3791896128     3.8060560151     -0.0427837207
C     0.0413960028     3.9861699656     0.1985698598


