60

 C     -1.3399592072     -4.0858579543     -0.1735105868
C     -0.732950817     -4.1087639851     1.0399013587
C     0.7403940829     -4.1803258539     0.8160408109
C     -0.2809765718     -4.1189063432     -1.2262370241
C     1.0029134159     -3.943670128     -0.5774328653
C     -0.7028642951     -3.268242535     -2.2169222288
C     -2.2728067462     -3.018570865     -0.5036401984
C     -2.0009518895     -2.6569740632     -1.8331101965
C     -2.5582851788     -1.9629354033     0.4424849234
C     -0.9941164649     -3.0678498373     2.0345803369
C     -1.8732370758     -1.9659955251     1.7296677448
C     1.3173792602     -3.3910615089     1.7756684766
C     0.2528114788     -2.7551186829     2.5924395034
C     2.2511544774     -2.3744124394     1.4461121971
C     1.8465512433     -2.8416990564     -0.9646907669
C     2.5691198613     -2.0838679348     0.0823316308
C     0.1284781816     -2.2432562373     -2.7256187325
C     1.4418911083     -2.0746488601     -2.163588368
C     -1.9651049578     -1.3115263599     -2.2465396174
C     -0.7113009858     -1.0599235262     -2.9092951889
C     -2.9449011806     -0.678241425     -0.1145698142
C     -2.5697639991     -0.2912907539     -1.4715936177
C     -3.133631552     0.3700804611     0.8147552022
C     -1.5817419022     -0.6750268635     2.3941697938
C     -2.372175474     0.4134404269     2.0285482393
C     0.6676852855     -1.4419318222     2.926991404
C     1.9990006087     -1.2758134713     2.3759041462
C     -0.2532218505     -0.3705451114     2.9291005308
C     2.4322452121     -0.0158239741     2.0921821235
C     3.098433438     -0.7379781955     -0.1907460026
C     3.1455535223     0.2504029749     0.8590245584
C     2.0046713414     -0.8074371266     -2.3890703781
C     2.9874766287     -0.2144694953     -1.516175063
C     -0.1877447668     0.2417305386     -2.9796903677
C     1.2406202368     0.2978136436     -2.9964395415
C     -2.2147244556     1.0855349307     -1.7787114984
C     -0.9695737939     1.3773640709     -2.4836450459
C     -3.2435301521     1.6979357379     0.365646647
C     -2.7760157804     2.0994652794     -0.9290814888
C     -1.9923724252     1.8300736687     2.2751805891
C     -2.7421210679     2.6225709744     1.3710708427
C     0.2750953319     0.9996249991     2.815777852
C     1.6429929243     1.128730011     2.4634140883
C     -0.6153202012     2.1318578302     2.5385975974
C     2.9912981853     1.6513355328     0.6091374228
C     2.1070647961     2.2146906283     1.6241896093
C     2.9709484379     1.1835326308     -1.7555540201
C     1.8891539056     1.4858647457     -2.6709548723
C     2.9108259192     2.1447332752     -0.7182842273
C     -0.2662157776     2.6346761902     -2.1854577736
C     1.1732865822     2.6191834298     -2.1892173377
C     1.9252617451     3.1502037798     -1.0537623589
C     -2.1662971663     3.3667720661     -0.7693747086
C     -2.1527983821     3.6954595168     0.6732758803
C     -0.8754293658     3.6119081291     -1.3055679649
C     -0.0638848695     3.3151450496     1.902838967
C     1.2723266434     3.2756934861     1.344587453
C     1.2159243952     3.8069775727     -0.0379897673
C     -0.8545831835     4.0791105104     0.9798637799
C     -0.0919568129     4.2402530471     -0.267011887


