60

 C     -1.7200271247     -3.9963324618     0.0144368779
C     -0.5091353814     -3.9899414598     -0.7116043543
C     0.6102507291     -3.7503116483     0.1415102016
C     -1.3970037274     -3.5257621416     1.3306295483
C     0.0413193797     -3.38444667     1.4381707401
C     -2.1348189805     -2.3605980349     1.6045902281
C     -2.5346187049     -2.9781961233     -0.5902348035
C     -2.9262109361     -2.040768565     0.3870050194
C     -0.6605448339     -3.1724599523     -1.9154289632
C     -1.9427742757     -2.4649739366     -1.7977148064
C     0.4381829439     -2.5119009043     -2.4109418207
C     1.7497883725     -3.0420562822     -0.3614094306
C     1.7026536886     -2.4899401342     -1.6858701551
C     2.5405186121     -2.3474710984     0.5732278741
C     0.6399850287     -2.3720018253     2.2347834578
C     2.0129297519     -2.1027003624     1.9377179925
C     -1.58849463     -1.2914223324     2.3906621939
C     -0.1741170409     -1.2640750891     2.754320794
C     -2.278014814     -0.0776428956     2.2976888842
C     -3.1806439237     -0.7077176914     0.0288837825
C     -3.1905266821     0.1910452501     1.1535848265
C     -2.0547996808     -1.0926599191     -2.1497434473
C     -2.8162629667     -0.1919423901     -1.2792438239
C     0.2658304439     -1.231605504     -3.059489096
C     -0.9760331132     -0.5275240691     -2.9782627918
C     2.3519625844     -1.249748726     -1.9940748523
C     1.5238345504     -0.5387101172     -2.9546568104
C     3.3297350053     -1.2086784121     0.2116033061
C     3.1284079309     -0.531911275     -1.0341454663
C     2.6395365736     -0.9833633854     2.4660034784
C     3.5102999239     -0.44377137     1.4167206502
C     0.4462036857     0.0254623395     3.0540981624
C     1.8750394863     0.1142020157     2.9724249622
C     -1.7188471279     1.1760108331     2.7039275447
C     -0.3130596995     1.2802851294     2.8872369944
C     -3.303680768     1.5473288048     0.9894238392
C     -2.448691031     2.1917004119     2.0030062872
C     -2.6834019962     1.2703302333     -1.4254059017
C     -3.0139527865     2.1444459751     -0.2902401938
C     -0.9036123449     0.8846188341     -3.1392831434
C     -1.7549807185     1.7853864036     -2.3537166696
C     1.557742898     0.8432006635     -3.0297974897
C     0.3469310164     1.5148747811     -3.3023505132
C     3.0623328062     0.9665060504     -1.0275705504
C     2.2859863372     1.6166838906     -2.0153462092
C     3.4530675681     0.9242721531     1.4381109043
C     2.507237173     1.3209828619     2.4843773443
C     3.1675817656     1.6587623171     0.2380632604
C     0.3446566436     2.4629206958     2.2888940594
C     1.737288     2.3468998306     1.9599075867
C     2.2159598083     2.6658210795     0.6003887744
C     -1.81618848     3.2433240343     1.3925388722
C     -2.2396119338     3.3033513778     -0.0183829598
C     -0.3942279356     3.3471340276     1.4551705482
C     -0.9595501205     2.9805037843     -2.0485661435
C     0.3316660316     2.7485715733     -2.5373668534
C     1.4910615965     2.798455704     -1.713769474
C     1.3483171097     3.2479810605     -0.3531934956
C     -1.0893391908     3.5913133653     -0.7739358801
C     0.0668634037     3.6782593957     0.1026373037


