60

 C     1.9294843824     3.6481559541     -0.4134531524
C     0.666948639     4.1906182225     -0.1625409775
C     -0.2012628522     3.8674440016     -1.3002521762
C     1.8406952258     2.9344252914     -1.6815534582
C     0.5058784954     2.9791410823     -2.1816250678
C     2.5313782903     1.7197727154     -1.5945942333
C     2.5521908053     2.7560654013     0.5107027901
C     3.0595428423     1.5937197663     -0.2495308921
C     1.9271242486     2.504194386     1.7309850722
C     -0.0352514014     3.8754330893     1.0413063098
C     0.6156668565     3.0702077175     2.0071025998
C     -1.4671766358     3.5152337818     -0.8069148778
C     -1.4089689546     3.5440037363     0.6698181821
C     -2.1725168238     2.4875595924     -1.4462017256
C     -0.109784495     1.7501628364     -2.6491912185
C     -1.5063547851     1.6188474947     -2.3981958197
C     2.0551473491     0.5608154394     -2.2854967034
C     0.6875307552     0.5238328527     -2.7811469893
C     2.6968615758     -0.6336873605     -1.8808394819
C     3.2525371246     0.3278818453     0.3312213556
C     3.2788068845     -0.7721470044     -0.5749810765
C     1.9770333514     1.1524337333     2.2951295907
C     2.7322648014     0.0974073121     1.6959421439
C     -0.1260209801     2.0383653739     2.6938847982
C     0.7256606239     0.8855796635     2.9198474279
C     -2.120753752     2.5856250652     1.3765060899
C     -1.4723109827     1.8158313667     2.4300290421
C     -3.0843534709     1.6570758478     -0.6984274599
C     -3.036644876     1.6838954198     0.6992077148
C     -2.1519846993     0.3256602782     -2.3664201482
C     -3.1897548058     0.3780689051     -1.3693998538
C     0.011447112     -0.7811437593     -2.8537461754
C     -1.4261620512     -0.8724231962     -2.6233252756
C     2.1127585638     -1.8837784795     -2.2072936552
C     0.7819177719     -1.9736750561     -2.6300187989
C     3.0589084702     -2.1535505312     -0.134184421
C     2.4076451485     -2.8654698186     -1.1832196791
C     2.3785010702     -1.2138415257     2.068568575
C     2.6287763605     -2.3786084     1.1829108295
C     0.2028474589     -0.4389704805     3.0038257428
C     1.1477322526     -1.4718810561     2.7650558875
C     -2.0066412124     0.4673608902     2.4243048522
C     -3.063069801     0.4273856351     1.4381644636
C     -1.2121893774     -0.6834490169     2.7158538839
C     -3.5215910804     -0.7683390236     -0.6448715672
C     -3.3841762182     -0.7608372611     0.8054010343
C     -1.9607312899     -2.0850813582     -2.0385081089
C     -3.0011948401     -2.0020027858     -1.0939142768
C     0.2350255435     -3.1589039067     -1.9313172843
C     1.244171661     -3.6501405256     -0.9695877867
C     -1.0907543019     -3.1887650845     -1.6133143687
C     1.6255324305     -3.3489829997     1.418717026
C     0.6951247203     -2.7626347974     2.3519545596
C     0.8555262168     -3.9370493506     0.3570142221
C     -1.6209450695     -1.9696000175     2.1307719367
C     -2.7249919509     -1.993194636     1.2128545982
C     -2.6376225153     -2.8195648661     0.0595661224
C     -1.5088214278     -3.600408206     -0.2576349485
C     -0.6341077727     -3.0069373011     1.9583674956
C     -0.544528509     -3.8071367926     0.7266871119


