60

 C     -0.1632723878     -4.3381889732     0.6833027139
C     0.7859015123     -4.3055450745     -0.3208584048
C     0.154272425     -3.7403841255     -1.561659821
C     -1.4597463709     -3.9991921166     0.0656857064
C     -1.2046047329     -3.4562321952     -1.2812784609
C     -2.1794206203     -3.2705207351     0.9691736551
C     -0.0044784858     -3.4804871456     1.8457244423
C     -1.3092093457     -2.9539393907     2.1194379263
C     1.1299882927     -2.5999115053     1.9600469694
C     2.0073078152     -3.6675899146     -0.1207791791
C     2.1871411651     -2.8074156663     0.9993654732
C     1.0116885308     -2.7700039598     -2.0981020006
C     2.2339974216     -2.8141339929     -1.3005634729
C     0.5095800514     -1.4920567615     -2.5161335113
C     -1.7554408093     -2.2047300365     -1.6695866899
C     -0.9171222524     -1.2441316605     -2.4195511909
C     -2.8670295427     -2.0886007526     0.5756891547
C     -2.7967485593     -1.6334559313     -0.7906353029
C     -1.5129827019     -1.611711777     2.4077013377
C     -2.651350068     -1.1169761458     1.6012214094
C     0.9217527011     -1.2127943213     2.4448078391
C     -0.4236771614     -0.7170278623     2.667456016
C     1.9794335335     -0.2229989879     2.2558152807
C     2.9457361758     -1.6577549069     0.519777351
C     2.907688174     -1.6730660488     -0.949512246
C     2.9752940778     -0.4559480381     1.1921712756
C     1.4537314687     -0.3603900864     -2.4981727505
C     2.6682559728     -0.4532735006     -1.6645446583
C     0.9519697933     0.9264308472     -2.7278115184
C     -1.3979676737     0.1203568773     -2.6222085519
C     -0.4578378518     1.1695422121     -2.843991449
C     -3.2049244875     -0.316722879     -0.9856351793
C     -2.6593413731     0.5181845957     -2.0546378925
C     -2.8881192032     0.2425631444     1.3837373086
C     -3.5008777694     0.5591452562     0.1278821545
C     -0.7300031888     0.7120943899     2.636276282
C     -1.9967312044     1.2219360697     2.0331251723
C     1.7146425361     1.1219375114     2.5847784143
C     0.3502846049     1.594887723     2.7404530446
C     2.4805946353     2.2068762482     1.9960338484
C     3.4481550763     0.6718742598     0.3966029821
C     3.1958242952     0.6846083408     -1.058911533
C     3.3188661774     1.9662886057     0.8768159352
C     1.5922880316     2.1336052298     -2.189917624
C     2.7222161093     2.0104357987     -1.3819553434
C     2.8421448505     2.8268919167     -0.2175915229
C     -0.6963050097     2.530123734     -2.3887604768
C     0.556790811     3.0623600361     -1.8448985762
C     -2.9267372785     1.8610712332     -1.7378879041
C     -3.4473490407     1.8843003459     -0.3695039923
C     -1.9200236357     2.8828942793     -1.8293804354
C     -2.0263818525     2.5404393859     1.5356849276
C     -2.7790695474     2.8624333217     0.3401993075
C     -1.8936643811     3.5915044806     -0.5620755404
C     0.3005749112     2.9382142356     2.1623568826
C     1.5978054538     3.2606600145     1.660626792
C     1.7536225514     3.5947320036     0.2405183735
C     0.5828746801     3.7544764646     -0.5861011845
C     -0.8166411521     3.3435761661     1.4725092813
C     -0.6933659473     3.8707396639     0.097669556


