60

 C     -1.9254610482     -3.9685934154     0.1015903172
C     -1.0819262616     -3.9438472573     -1.008548076
C     0.3156947225     -3.990095865     -0.5827874141
C     -1.0898480999     -3.8480936743     1.2812857083
C     0.2850829169     -4.0152251175     0.8760587783
C     -1.4496541299     -2.6645836015     1.9497036417
C     -2.7857817855     -2.8179817883     0.0257354417
C     -2.5739020017     -2.0520745261     1.1936453547
C     -1.541627881     -2.9015239415     -1.914389236
C     -2.620926034     -2.1680530648     -1.2510654858
C     -0.5993520075     -2.1661499483     -2.5945976642
C     1.2864500402     -3.1908592852     -1.261094231
C     0.8408032147     -2.3295773347     -2.32923129
C     2.4125037957     -2.6989043697     -0.5065464481
C     1.2600186359     -3.3211673171     1.5897035152
C     2.4077082733     -2.871431063     0.8922795215
C     -0.4546335551     -1.7913256201     2.5449177219
C     0.885872739     -2.218353643     2.4847904766
C     -0.7583258278     -0.3601660311     2.7055357673
C     -2.7215344344     -0.6649137589     1.1608284872
C     -2.027564237     0.13503717     2.1832808426
C     -2.7145703123     -0.7648039762     -1.339446412
C     -3.033210342     -0.0390744384     -0.1203837645
C     -0.851414902     -0.7871148154     -2.9276505309
C     -1.8991377544     -0.0513710601     -2.3399260815
C     1.4604299139     -1.0860433474     -2.5893297339
C     0.4505206179     -0.1753162168     -3.1202591715
C     3.0164169599     -1.3861886623     -0.7692769904
C     2.547066321     -0.5449935255     -1.7922923579
C     2.9236597749     -1.6653087675     1.5217853723
C     1.9611512157     -1.2225193584     2.4491124166
C     3.400967805     -0.7995086137     0.5166596209
C     0.3259515938     0.5884501989     2.8857257414
C     1.6940841859     0.1697096888     2.5944939498
C     0.0395712961     1.9925892803     2.7693669967
C     -2.2802509377     1.5200652144     2.1596988139
C     -1.2704770003     2.4370300071     2.5669789646
C     -3.0585746916     1.3739490106     -0.1650312288
C     -2.9334426489     2.1149535282     1.0112771329
C     -1.7586308809     1.4150730874     -2.2858903148
C     -2.44460275     2.1286130352     -1.2784933866
C     0.608089555     1.1729701437     -3.0672792701
C     -0.5527209609     2.020749549     -2.8026313414
C     2.6616654735     0.9272643155     -1.6500630129
C     1.7930269665     1.7631016564     -2.43188608
C     3.2782190005     0.5664172007     0.7239965913
C     2.5405579721     1.0615816218     1.857259833
C     3.0655104107     1.4668385308     -0.3912227435
C     0.9387268931     2.9023072687     2.0377366678
C     2.1124266343     2.4000712763     1.5193639689
C     2.4844625344     2.6795133392     0.1366349204
C     -1.2527354163     3.5686379774     1.6317553794
C     -2.2463115589     3.3572027684     0.6863514546
C     -1.9264015661     3.3621172456     -0.7183648453
C     0.1092004696     3.818917241     1.2478078923
C     -0.0476482247     3.1976851021     -2.2257945845
C     1.3903198497     3.0259243559     -1.9754728482
C     1.6488247669     3.4770596473     -0.6538265892
C     -0.6518758374     3.828904107     -1.1113291726
C     0.4075583396     4.0324297366     -0.101250985


