60

 C     1.0373410954     4.3664709518     -0.6229345032
C     -0.2130639322     4.2853359263     0.0916297375
C     -0.0110496814     3.6628055138     1.3634261527
C     2.0031567233     3.672960024     0.1387973114
C     1.4091983096     3.3145424927     1.3987734969
C     2.4962410455     2.5582276882     -0.6552131631
C     0.8332457102     3.6206225319     -1.8299724519
C     1.7701817983     2.515571597     -1.8890439897
C     -1.2405790869     3.7841004194     -0.7878394393
C     -0.5581995217     3.3612981113     -2.0241377673
C     -2.2261923281     2.9707778689     -0.2472337798
C     -0.9828133741     2.7571899976     1.9004290617
C     -2.1749751676     2.5572702011     1.1361015069
C     -0.5150366372     1.6136838721     2.7221222609
C     1.8162980705     2.1297224509     2.0127716685
C     0.8920392886     1.3186843571     2.7423315413
C     2.9240517425     1.3366229478     -0.0482841345
C     2.7532568852     1.2320959949     1.3573773826
C     2.9077181009     0.1138674375     -0.8516312537
C     1.3963617244     1.2559683298     -2.4713254717
C     2.0751868895     0.0289882403     -2.0364056762
C     -0.9198094316     2.1566001756     -2.6214749124
C     0.0682293834     1.158052588     -2.9652640373
C     -2.7465064233     1.8253364347     -1.0063041964
C     -2.1005903025     1.4358015729     -2.1768682383
C     -2.9085293065     1.3180706546     1.2463875837
C     -3.2164299089     0.8227860908     -0.0873389472
C     -1.352204693     0.5058141529     2.9428962824
C     -2.6348896283     0.4064518337     2.2589152215
C     -0.828653171     -0.8637278529     3.0800981887
C     1.3984532189     -0.048849808     2.7895625496
C     2.5715912028     -0.0608258365     1.9610629846
C     0.5530482024     -1.1783197925     2.8608526811
C     3.1988267431     -1.0984766062     -0.152043934
C     2.9046386235     -1.2010577169     1.2813282621
C     2.9301924458     -2.3358175758     -0.7279331744
C     1.5326324595     -1.274856233     -2.4386463323
C     2.103457172     -2.4624321975     -1.8674145106
C     -0.5912912563     -0.1255377961     -2.962048029
C     -1.9220923113     0.0334737942     -2.4530568133
C     0.1178671446     -1.3357958552     -2.8308903242
C     -3.1741035636     -0.5735921174     -0.3949913298
C     -2.5152646996     -0.9781607934     -1.6467572142
C     -2.8923556037     -0.9658798339     2.0164993896
C     -1.7949632472     -1.7343138185     2.5738633077
C     -3.1053844838     -1.4705377346     0.7238108054
C     -1.4852290485     -2.8638888463     1.7472693955
C     -2.3772298839     -2.7549016359     0.6216885727
C     0.9248435949     -2.4426735967     2.1721318532
C     2.1826891681     -2.4407551147     1.5075705203
C     2.3996456707     -3.2352996077     0.3276353354
C     -0.1356670397     -3.3229791982     1.612685441
C     1.2863881827     -3.6475298675     -1.6302553818
C     1.4358019386     -4.043272365     -0.2028083505
C     0.1294023426     -4.0895482344     0.4167519112
C     -0.6912233475     -2.4645841326     -2.4466813596
C     -1.9334838929     -2.2652110744     -1.7606620418
C     -1.9502910102     -3.2072892446     -0.619422227
C     -0.0565919353     -3.6239051246     -1.8809914544
C     -0.7972910594     -4.0091751407     -0.6688960668


