60

 C     1.4769370701     -4.6204877703     -0.6825434072
C     0.932709696     -4.8802992156     0.617012517
C     -0.4573364689     -4.7169951848     0.5473270775
C     0.3471170907     -4.246259426     -1.5739948757
C     -0.871728182     -4.4371354707     -0.8528809706
C     0.6281035114     -2.9977895913     -2.1910676684
C     2.3395665523     -3.5325484909     -0.6167553304
C     1.9060245261     -2.5589286208     -1.6206864425
C     1.424202108     -3.8167017972     1.5098170676
C     2.3622246798     -3.0400259951     0.7857596025
C     -0.8792834969     -3.7829039853     1.5882390924
C     0.3303781926     -3.1455750941     2.1335156186
C     -1.9952382237     -3.0023651782     1.3655576631
C     -1.8990426443     -3.5175109616     -1.0480832294
C     -2.6862225543     -3.0631822919     0.0905715224
C     -0.3912714656     -2.0026978358     -2.3609691577
C     -1.6939632172     -2.3546826594     -1.9069656735
C     -0.0165166377     -0.5696415103     -2.3902503198
C     2.1697372733     -1.220911213     -1.4342937639
C     1.3365658819     -0.1834617614     -2.063731507
C     2.4335999275     -1.6670294306     1.0082111181
C     2.7961356616     -0.8541684771     -0.1544998873
C     0.3721312012     -1.7325450768     2.3538550783
C     1.5520547792     -1.0082720108     1.950882481
C     -2.0280386008     -1.6111702595     1.8538866659
C     -0.8689570707     -0.948997972     2.3417807672
C     -3.1017887972     -1.7519012902     -0.1731104159
C     -2.5481802559     -1.3022272579     -1.427497111
C     -2.9007426003     -0.8919453619     0.9719285119
C     -1.0090113195     0.4704775246     -2.2262007878
C     -2.2530165396     0.0508450505     -1.5799797914
C     -0.6460487428     1.8835568956     -2.2260936496
C     1.7071493002     1.2010537495     -1.9022831496
C     0.7596080026     2.2802141735     -2.1644733048
C     3.0201118666     0.4519455009     0.0660258246
C     2.7724951496     1.4586750804     -0.9581024927
C     1.599317923     0.4473535194     2.0506561675
C     2.661228396     1.0853706748     1.3412875613
C     -0.8357377102     0.5165086966     2.2895015569
C     0.4276386865     1.2492444527     2.3347238552
C     -2.8069125228     0.468169412     0.7977737746
C     -2.7986081942     0.957550519     -0.5803639454
C     -1.9689303038     1.2161431825     1.7262283571
C     -1.6398147549     2.8099023247     -1.7470625222
C     -2.5985389246     2.3003895215     -0.7785014233
C     -1.3027551187     4.1326596351     -1.3040569578
C     1.0733760106     3.6170379247     -1.6859055811
C     0.035544124     4.498765134     -1.2511848173
C     2.9098498774     2.6988041789     -0.3277072185
C     2.6929809852     2.4614535996     1.1336293869
C     2.1164623292     3.7637430726     -0.6961489123
C     0.4649662976     2.7196772888     2.120196555
C     0.3262891152     4.8939701196     0.1764729514
C     1.6728085611     3.3297900504     1.5648474842
C     1.5428236049     4.3551363053     0.5179314299
C     -1.925555272     2.6078475643     1.548189286
C     -2.5502066327     3.1879483392     0.363454454
C     -1.924344844     4.384131449     0.0198948427
C     -0.764804132     3.3967609132     1.832048441
C     -0.827543154     4.5632353379     0.9241880022


