60

 C     0.2637581065     4.4366947947     -1.2237170305
C     -1.1064949262     4.1117756806     -0.8710543607
C     -1.2033760757     4.0447297754     0.5235621372
C     1.0395846298     4.2913314168     -0.0051195103
C     0.1729946116     4.1123396749     1.0857532384
C     2.0625118229     3.2935864264     -0.1804975553
C     0.6936158198     3.3716539513     -2.0352553173
C     1.8762503905     2.7396924201     -1.5060697935
C     -1.5440237326     2.9306127112     -1.6102138163
C     -0.3944150901     2.4718821802     -2.3499020919
C     -2.4357491365     1.9792820548     -1.0433465091
C     -1.8895355992     2.9868459383     1.1466612636
C     -2.721753708     2.1011776238     0.3875677572
C     0.3108096932     3.0244169865     1.9847373322
C     -1.0002567855     2.4037613135     2.1303756344
C     2.3960761568     2.3868716453     0.8672202912
C     1.4629620448     2.1689693669     1.9741729945
C     3.1776467259     1.2839542704     0.4267285049
C     2.155827188     1.3789263792     -1.8077301044
C     3.0493378922     0.7560441224     -0.9191338464
C     -0.1755166791     1.0919536272     -2.6168618306
C     1.1621529493     0.5346199126     -2.4896750301
C     -2.464201953     0.657126553     -1.6572172302
C     -1.3350470699     0.232267169     -2.4941375275
C     -3.2072748435     -0.3680586142     -1.0007907144
C     -3.1303628928     0.9449552144     1.0802972667
C     -3.5740017056     -0.1816567015     0.3533486348
C     -1.1646454409     1.067864089     2.584518461
C     -2.3771592973     0.4324091047     2.2063689916
C     1.3363861141     0.8226886046     2.5456725737
C     0.0253522571     0.2691741793     2.8746277015
C     3.3131873071     0.1618268938     1.2488433051
C     2.3862354892     -0.1185662648     2.2758190087
C     3.2205175943     -0.6905103691     -0.8858799214
C     3.534406926     -1.0419435823     0.44687336
C     1.3420904321     -0.8988860523     -2.4979989507
C     2.4035922884     -1.5364703532     -1.6882709647
C     -1.1280650176     -1.1404971558     -2.7245339671
C     0.1918922969     -1.6876616906     -2.8239179125
C     -2.9044759037     -1.7845607476     -1.1610655085
C     -1.9800207982     -2.1785867342     -2.1119084148
C     -3.287126826     -1.4047709561     1.0774003691
C     -2.4918851935     -1.0222618474     2.1836756937
C     -2.8529610127     -2.3956493819     0.1643333176
C     -0.142583756     -1.1506162734     2.8954839757
C     -1.3609902669     -1.7832927362     2.4842198514
C     2.1669984117     -1.5642614618     2.2353533777
C     2.8943548471     -2.1218398323     1.0765684905
C     0.9241378436     -2.0631782967     2.5340579745
C     2.1672077101     -2.8566694258     -1.1486618468
C     2.3013971439     -3.0948125459     0.2789872833
C     0.1078410525     -3.083006623     -2.439610862
C     -1.2094747402     -3.3465500696     -1.9152601896
C     1.0566928151     -3.6374767653     -1.5908462302
C     -1.785980078     -3.3114420764     0.5063784828
C     -1.0533254642     -2.9975316713     1.7132987797
C     0.3580421242     -3.2072240554     1.8073879941
C     1.0639185963     -3.7572638894     0.7156256062
C     -1.0473345747     -3.8922257016     -0.5854531872
C     0.3502593867     -4.1719619052     -0.4317896291


