60

 C     -0.6365140935     -4.297940553     -0.1126147267
C     -1.0014964123     -3.7788732545     -1.3668105353
C     -2.2494117691     -3.0346477089     -1.1816690415
C     -1.5134871859     -3.6141161163     0.8912887695
C     -2.5210956198     -2.880847642     0.2129784386
C     -0.7034221866     -3.0299250387     1.892063589
C     0.661597596     -4.172098338     0.3216817328
C     0.6385352128     -3.509182688     1.6600457584
C     1.6350921697     -3.4905323344     -0.4624711016
C     -0.1118050126     -2.9396204777     -2.0932873203
C     1.2419189675     -2.774667165     -1.6643184891
C     -2.2369950652     -1.9029420647     -2.0105270423
C     -0.8929527151     -1.7621427139     -2.5467105451
C     -2.9365964026     -0.7807498243     -1.5816797806
C     -2.9298769456     -1.6101655264     0.7319934727
C     -3.4256675695     -0.6795632275     -0.2240700599
C     -0.9341907022     -1.6625142214     2.2977856156
C     -2.195554881     -1.0558330878     1.8804331753
C     0.2172486325     -0.8088132061     2.5903608666
C     1.7115247943     -2.6625472743     1.7492322129
C     2.4822325854     -2.8120239273     0.4865143482
C     1.5590227015     -1.3271633957     2.3219669631
C     3.2762990993     -1.7875054366     0.0837954123
C     1.9061207171     -1.5009241223     -1.9711541948
C     3.0698704949     -1.1652266976     -1.2314433171
C     -0.3360517607     -0.4894789539     -2.7027472754
C     1.1308552647     -0.3760728585     -2.566006315
C     -2.5152009191     0.5247296697     -1.9896389094
C     -1.2085308853     0.7044148274     -2.5121366001
C     -3.5690079864     0.7159732399     0.07699155
C     -3.1153436826     1.4850717824     -1.0754865263
C     -2.3813599545     0.3066809484     2.1618644621
C     -3.2337850022     1.1628954239     1.363974275
C     0.0468054809     0.6356765222     2.6856787695
C     -1.2892926382     1.1426412788     2.6695419885
C     1.1217729373     1.5625310273     2.3194628218
C     2.6016856888     -0.4233025009     2.0477026781
C     3.5802495759     -0.7417817272     1.0200867046
C     2.3906881983     1.0129758766     2.0281453674
C     3.5281100635     0.1912859144     -1.1043777967
C     3.8306429504     0.4366264733     0.3009442747
C     3.2144875794     1.5474637961     0.9748155756
C     1.6769049995     0.9143904661     -2.5320638625
C     2.9048636722     1.2027204409     -1.8250715146
C     -0.6065819547     2.0237887693     -2.3236521361
C     0.8163384724     2.1149269006     -2.4163508858
C     -2.5385628362     2.7353617336     -0.8967409144
C     -1.2787038212     3.0221148897     -1.5453009817
C     -2.7647120407     2.5049615193     1.5354584498
C     -1.5752397215     2.4921487415     2.3796622368
C     -2.4994306275     3.3119442425     0.4330603603
C     0.7817708575     2.8845425456     1.7206498923
C     -0.5060701509     3.8653792536     -0.6215624499
C     -0.5836393767     3.3273962955     1.7732851823
C     -1.1942388527     3.9165410838     0.6126679557
C     2.7564069523     2.6260940174     0.2058711694
C     2.7411285444     2.4903590838     -1.2079301804
C     1.5227614707     3.0908981937     -1.6746906542
C     1.5583724265     3.3417561835     0.6147943105
C     0.8815104665     3.7769108422     -0.6042851226


