60

 C     0.9781443633     -4.388400018     -0.6301919407
C     1.5776658193     -3.5789140075     -1.5775359764
C     0.5137481386     -3.0160712106     -2.4221849317
C     -0.4594901543     -4.4513103317     -0.9246103677
C     -0.7608178352     -3.4505895177     -1.9287235612
C     -1.1166906542     -4.4136745127     0.3063931576
C     1.1372112308     -4.0895797022     0.7974997165
C     -0.1356494581     -4.1638668043     1.4057399583
C     1.989085692     -3.0240877931     1.1629781292
C     2.4398730118     -2.4952967979     -1.2065340537
C     2.7495214052     -2.2993115815     0.1516064548
C     0.803567577     -1.6751226414     -2.6596968585
C     2.079265065     -1.3316248659     -2.0219758825
C     -0.2222561397     -0.6920703654     -2.6543985487
C     -1.763964375     -2.4358670641     -1.6897102404
C     -1.5264353883     -1.069656037     -2.1527498842
C     -2.1968063802     -3.558006634     0.4921599526
C     -2.5530652725     -2.5831385802     -0.4778056134
C     -0.6479183155     -3.0922051549     2.2039241998
C     -1.9946441113     -2.8522689926     1.7795349094
C     1.5414760365     -2.0240056994     2.1067646888
C     0.1841207426     -1.9393956349     2.5466214087
C     2.9521225859     -0.9600380563     0.6019585921
C     2.2596904108     -0.8063373129     1.8532878206
C     2.3526568556     -0.0279982733     -1.62703251
C     2.9771601736     0.1430806213     -0.3057031796
C     0.2222561397     0.6920703654     -2.6543985487
C     1.5264353883     1.069656037     -2.1527498842
C     -0.803567577     1.6751226414     -2.6596968585
C     -2.3526568556     0.0279982733     -1.62703251
C     -2.079265065     1.3316248659     -2.0219758825
C     -2.9312922755     -1.4039836485     0.2654613136
C     -2.4644726003     -1.5643158291     1.649886723
C     -2.9771601736     -0.1430806213     -0.3057031796
C     -0.4181301666     -0.6106323163     2.6839057559
C     -1.793003419     -0.4525983447     2.2711309678
C     1.793003419     0.4525983447     2.2711309678
C     0.4181301666     0.6106323163     2.6839057559
C     2.9312922755     1.4039836485     0.2654613136
C     2.4644726003     1.5643158291     1.649886723
C     1.763964375     2.4358670641     -1.6897102404
C     2.5530652725     2.5831385802     -0.4778056134
C     -0.5137481386     3.0160712106     -2.4221849317
C     0.7608178352     3.4505895177     -1.9287235612
C     -2.4398730118     2.4952967979     -1.2065340537
C     -1.5776658193     3.5789140075     -1.5775359764
C     -2.9521225859     0.9600380563     0.6019585921
C     -2.2596904108     0.8063373129     1.8532878206
C     -2.7495214052     2.2993115815     0.1516064548
C     -0.1841207426     1.9393956349     2.5466214087
C     -1.5414760365     2.0240056994     2.1067646888
C     -1.989085692     3.0240877931     1.1629781292
C     1.9946441113     2.8522689926     1.7795349094
C     2.1968063802     3.558006634     0.4921599526
C     0.6479183155     3.0922051549     2.2039241998
C     0.4594901543     4.4513103317     -0.9246103677
C     -0.9781443633     4.388400018     -0.6301919407
C     -1.1372112308     4.0895797022     0.7974997165
C     1.1166906542     4.4136745127     0.3063931576
C     0.1356494581     4.1638668043     1.4057399583


