60

 C     0.5202394044     3.8653312081     1.596362405
C     -0.7019934721     3.9307071151     0.9442953866
C     -0.4954600345     4.0485140525     -0.5016097696
C     1.5282045661     3.9073846601     0.5323324251
C     0.8841801982     3.8561358731     -0.7661877038
C     2.5110803562     2.9878616977     0.8303305803
C     0.8276848103     2.7067632531     2.4266084315
C     2.1444766217     2.3259389971     2.0979414827
C     -0.1676671548     1.6742622744     2.6936449091
C     -1.7169325828     2.9638258218     1.159420761
C     -1.5097806874     1.9156313274     2.1504344457
C     -1.5109686917     3.2830207644     -1.1405451947
C     -2.3236041272     2.6335099406     -0.1117506878
C     -1.182573776     2.563251592     -2.2616359597
C     1.2819578683     2.8580051727     -1.7411716075
C     0.2286754682     2.427428378     -2.6179048068
C     2.9010542691     1.9674933359     -0.083164262
C     2.31794579     1.8600992033     -1.3934665651
C     2.4926958316     0.9813627858     1.9951642061
C     3.1242631407     0.7678856119     0.699098026
C     0.2580577319     0.295403587     2.8641271711
C     1.6461479187     -0.0312872885     2.5497271125
C     -0.7279690232     -0.8124539614     2.8374765939
C     -2.3929279186     0.8511629931     2.0600847828
C     -2.0754172955     -0.4649985905     2.5847855553
C     -2.9206823251     1.3749078615     -0.3294489573
C     -3.2040142604     0.6448567898     0.8603571397
C     -1.842954672     1.2647522993     -2.5291598201
C     -2.6594558135     0.6131386562     -1.5702568877
C     0.3374981154     1.1957781981     -3.278234482
C     -0.961604066     0.5064094617     -3.3133277275
C     2.3076852544     0.5159907598     -1.9855851466
C     1.3357761539     0.250455054     -3.0021263306
C     3.1819501869     -0.510793919     0.1502011269
C     2.8334389848     -0.6606695107     -1.2629551993
C     2.0082489448     -1.3340659313     2.17323253
C     2.9125265745     -1.5764392535     1.0822514384
C     -0.3118229047     -2.2019763322     2.5079579296
C     1.0705411398     -2.4663671173     2.2658667922
C     -1.2250333494     -3.080138685     1.8059004419
C     -2.9657789974     -1.3894135772     1.9339114507
C     -3.5224793927     -0.7057276773     0.7819593918
C     -2.5354524015     -2.629102677     1.5149403439
C     -2.6518005613     -0.860919192     -1.538837356
C     -3.241962409     -1.4980151972     -0.3989269068
C     -2.7738843216     -2.7541544076     0.064599371
C     -0.7651437445     -0.8669563347     -3.133587445
C     0.6820827069     -1.055117106     -3.1117728592
C     -1.6100912513     -1.6173567243     -2.2584071296
C     2.4030937989     -1.9599250856     -1.6653036514
C     1.2236674238     -2.1298621086     -2.4843611685
C     2.5990471821     -2.8744368279     0.6041537952
C     1.4985642054     -3.4590470866     1.3661624124
C     2.3647927256     -3.0703762156     -0.7489946332
C     -0.774628686     -3.8163113218     0.6277645874
C     -1.6339858656     -3.3716738553     -0.4835468434
C     -1.0562970901     -2.8534057398     -1.6885351064
C     0.3492847482     -3.144768534     -1.8761254737
C     0.575086355     -4.0280462355     0.4182206629
C     1.1124184999     -3.8134622326     -0.9023844073


