60

 C     -0.6590758253     -3.3087093218     1.9571298912
C     0.2313432777     -2.7028996775     2.8032138048
C     1.5851606083     -2.7605669116     2.2165506152
C     0.0854376992     -3.7351773878     0.7661491912
C     1.4657191422     -3.2709552038     0.9040453598
C     -0.6639657547     -3.3880397881     -0.3345378347
C     -1.855782963     -2.6210471177     1.53698167
C     -1.9596751895     -2.8193792241     0.1268287961
C     -2.2199463374     -1.3697580348     2.1324229027
C     -0.001805718     -1.3902112183     3.3283450104
C     -1.2622369868     -0.7466299237     3.0837540901
C     2.185248895     -1.5099420141     2.4707282835
C     1.2386006192     -0.6615271076     3.2139602505
C     2.968476632     -0.9372816835     1.4755991933
C     2.1124949083     -2.6096738998     -0.1917649671
C     2.9961566471     -1.5421732043     0.1610184638
C     -0.0298997351     -2.9028424597     -1.5541150406
C     1.4129634765     -2.5364773739     -1.4952381303
C     -0.8816125795     -2.2964153838     -2.4828066905
C     -2.6634640411     -1.9239733435     -0.6930883315
C     -2.2295415924     -1.8082122044     -2.0640282124
C     -3.011577648     -0.5020588432     1.3159849721
C     -3.261708099     -0.786453741     -0.068955245
C     -2.968476632     0.9372816835     1.4755991933
C     -1.2386006192     0.6615271076     3.2139602505
C     -2.185248895     1.5099420141     2.4707282835
C     1.2622369868     0.7466299237     3.0837540901
C     0.001805718     1.3902112183     3.3283450104
C     3.011577648     0.5020588432     1.3159849721
C     2.2199463374     1.3697580348     2.1324229027
C     3.2931069702     -0.4871659299     -0.771070575
C     3.261708099     0.786453741     -0.068955245
C     1.886734179     -1.6142131408     -2.4513196877
C     2.8493112763     -0.5806037368     -2.076368861
C     -0.3752046343     -1.3726651111     -3.4758062475
C     0.9900381949     -1.0284553672     -3.4547762289
C     -2.4675411079     -0.6306584079     -2.7576312522
C     -1.334329928     -0.3345448315     -3.6212050904
C     -3.2931069702     0.4871659299     -0.771070575
C     -2.9961566471     1.5421732043     0.1610184638
C     -2.8493112763     0.5806037368     -2.076368861
C     -2.1124949083     2.6096738998     -0.1917649671
C     -1.5851606083     2.7605669116     2.2165506152
C     -0.2313432777     2.7028996775     2.8032138048
C     -1.4657191422     3.2709552038     0.9040453598
C     1.855782963     2.6210471177     1.53698167
C     0.6590758253     3.3087093218     1.9571298912
C     -0.0854376992     3.7351773878     0.7661491912
C     2.6634640411     1.9239733435     -0.6930883315
C     1.9596751895     2.8193792241     0.1268287961
C     0.6639657547     3.3880397881     -0.3345378347
C     2.4675411079     0.6306584079     -2.7576312522
C     1.334329928     0.3345448315     -3.6212050904
C     2.2295415924     1.8082122044     -2.0640282124
C     -0.9900381949     1.0284553672     -3.4547762289
C     -1.886734179     1.6142131408     -2.4513196877
C     -1.4129634765     2.5364773739     -1.4952381303
C     0.0298997351     2.9028424597     -1.5541150406
C     0.3752046343     1.3726651111     -3.4758062475
C     0.8816125795     2.2964153838     -2.4828066905


