60

 C     4.9303792776     -0.2663613926     0.
C     4.2471089927     -0.8194374628     1.1447243942
C     3.7624367361     0.2048568417     1.9890515894
C     4.602049419     1.1321713531     0.
C     3.9302465502     1.458257188     1.2262514615
C     3.9302465502     1.458257188     -1.2262514615
C     4.2471089927     -0.8194374628     -1.1447243942
C     3.7624367361     0.2048568417     -1.9890515894
C     3.2969018565     -1.8227763346     0.7269507943
C     3.2969018565     -1.8227763346     -0.7269507943
C     2.0656124494     -2.0055926605     1.4126343517
C     2.4412813541     0.1627705321     2.4879809993
C     1.6038309207     -0.981771687     2.3378412763
C     2.6993149168     2.1342963878     1.2356733675
C     1.8138155538     1.4190386365     2.1567175868
C     2.6993149168     2.1342963878     -1.2356733675
C     2.0811237783     2.5908690534     0.
C     2.4412813541     0.1627705321     -2.4879809993
C     1.8138155538     1.4190386365     -2.1567175868
C     2.0656124494     -2.0055926605     -1.4126343517
C     1.6038309207     -0.981771687     -2.3378412763
C     1.075867321     -2.8053518097     0.7337745868
C     1.075867321     -2.8053518097     -0.7337745868
C     -0.152849658     -2.9883711198     1.3996202512
C     0.166805824     -0.8125117271     2.5438381955
C     -0.643796682     -1.9196968689     2.2577147239
C     0.4254297946     1.5949273469     2.131719215
C     -0.4563352042     0.5150320637     2.5220588743
C     0.6944726767     2.8309440549     0.
C     -0.0772105479     2.6124290881     1.2273180399
C     0.4254297946     1.5949273469     -2.131719215
C     -0.0772105479     2.6124290881     -1.2273180399
C     0.166805824     -0.8125117271     -2.5438381955
C     -0.4563352042     0.5150320637     -2.5220588743
C     -0.152849658     -2.9883711198     -1.3996202512
C     -0.643796682     -1.9196968689     -2.2577147239
C     -1.2821841151     -3.4862753644     0.6953816608
C     -1.2821841151     -3.4862753644     -0.6953816608
C     -2.0869812374     -1.7856505101     2.0549895049
C     -2.4857136037     -2.7876209276     1.1496552354
C     -1.8970036384     0.6778879015     2.3573888836
C     -2.7246393469     -0.4986196936     2.0723341889
C     -1.441608638     2.8413077807     1.2310969902
C     -2.3650113735     1.9583862717     1.8970547967
C     -1.441608638     2.8413077807     -1.2310969902
C     -2.0930162058     3.2914671341     0.
C     -1.8970036384     0.6778879015     -2.3573888836
C     -2.3650113735     1.9583862717     -1.8970547967
C     -2.0869812374     -1.7856505101     -2.0549895049
C     -2.4857136037     -2.7876209276     -1.1496552354
C     -3.2765662062     -2.4463085283     0.
C     -2.7246393469     -0.4986196936     -2.0723341889
C     -3.84033751     -0.344934738     1.1749104598
C     -3.9054432184     -1.2133248676     0.
C     -3.84033751     -0.344934738     -1.1749104598
C     -3.6262304272     2.0977123347     1.1783709954
C     -3.4269102234     2.9597084846     0.
C     -3.6262304272     2.0977123347     -1.1783709954
C     -4.2517949355     0.9421261342     0.7511076748
C     -4.2517949355     0.9421261342     -0.7511076748


