60

 C     -2.0588187302     3.9517873252     0.2498278095
C     -2.5719390727     2.9782557334     1.1176202344
C     -1.5353079625     2.550691296     2.0437007158
C     -0.6932220845     4.1509814519     0.5838293791
C     -0.3475091248     3.3220436622     1.7145034969
C     0.1027180092     4.0315046974     -0.6011689849
C     -2.053130877     3.324348014     -1.080057062
C     -0.7475650383     3.3395417307     -1.6088127016
C     -3.211942554     1.9487710316     0.3296153881
C     -2.7846540976     2.1049940138     -1.0553671026
C     -3.3128292353     0.6920105324     0.8677186594
C     -1.4405823697     1.1816627385     2.4211494998
C     -2.5099593523     0.3068323189     1.9988885429
C     -0.1343379659     0.5740584545     2.6766682338
C     0.936699098     2.7250392526     1.7936929735
C     1.0603765428     1.3921535725     2.422935107
C     1.4167508596     3.6542208645     -0.4673527164
C     1.8970243133     3.0909409435     0.7838194428
C     2.0088692831     2.8881426331     -1.5426468488
C     -0.2408741692     2.1793929082     -2.3075870064
C     1.1826594787     2.0600099206     -2.338992509
C     -2.3452647638     0.9426405212     -1.7739323903
C     -1.0526611702     0.9662224239     -2.4252974697
C     -3.4137599545     -0.4469130483     -0.0100762533
C     -2.9104200385     -0.3379245523     -1.3430094846
C     -2.3630512001     -1.1137962051     1.9259032355
C     -3.1161812677     -1.6039819981     0.7766118936
C     -0.0326485977     -0.8917397863     2.7116865135
C     -1.1508700133     -1.7456677302     2.311993155
C     1.2699650201     -1.4831373352     2.6263279801
C     2.3113936064     0.7222687802     2.2877767454
C     2.3924693695     -0.6727195007     2.4675563712
C     2.959000967     2.1682297156     0.4301128796
C     3.005989052     2.0429018487     -0.9943060258
C     3.205659084     1.0373714072     1.187600721
C     1.8430097677     0.7404386834     -2.4572688151
C     3.0011811841     0.7442098308     -1.6209680972
C     -0.3811584093     -0.3190113476     -2.7335620782
C     1.0931997306     -0.4210398079     -2.6763430535
C     -2.3927669176     -1.5337650057     -1.9207344988
C     -1.1005323436     -1.5120574185     -2.600886007
C     -2.7667568703     -2.7974991408     0.1484980192
C     -2.5199570454     -2.7711012716     -1.2551228712
C     -0.8977016144     -3.0660665135     1.7441051087
C     -1.7249970973     -3.5883986162     0.7412210032
C     1.5180890322     -2.7310673791     1.8690445384
C     0.4769947089     -3.4869683419     1.4250898171
C     3.2350515637     -1.242712475     1.4170304581
C     3.6216154956     -0.2179217561     0.5487992196
C     3.372053068     -0.4040978248     -0.8735368925
C     2.675208674     -2.4837893683     1.0000931194
C     1.708527089     -1.6485757061     -2.239536848
C     2.7933865958     -1.6363024903     -1.2940704508
C     2.5422256697     -2.7354911059     -0.3686740205
C     -0.4419104886     -2.8056311743     -2.3323146924
C     -1.3260096639     -3.5819668437     -1.5304375845
C     -0.876179963     -4.1426802104     -0.3319002442
C     0.4849924158     -4.0380219135     0.0613656217
C     0.9262686361     -2.8445568831     -2.0479892707
C     1.4141213386     -3.5070634558     -0.8528340029


