60

 C     -1.6641236685     4.0249450078     0.7311600681
C     -0.9720531     4.0548059151     -0.5037690707
C     -1.5815473382     3.124493888     -1.4269006939
C     -2.623504514     2.9872988499     0.6573501171
C     -2.6531076575     2.4718437183     -0.6963297903
C     -2.310714042     2.029524384     1.6703444188
C     -0.6820989972     3.6621297753     1.7361446505
C     -1.0710075519     2.4412496338     2.3469935956
C     0.4539295781     4.0084464684     -0.2713773925
C     0.6338248319     3.7840297735     1.181895155
C     1.2543276436     3.2994848826     -1.1578790794
C     -0.7607157285     2.352134299     -2.2998450595
C     0.6663993277     2.4912832776     -2.2222973747
C     -1.2473831107     1.0700465363     -2.6967285435
C     -2.976303423     1.1180675637     -0.9200570015
C     -2.4043237424     0.5013774593     -2.0744520369
C     -2.6167929002     0.6668389888     1.5108560724
C     -3.1912485929     0.2401784795     0.2376135088
C     -1.8592614998     -0.3000353392     2.3102039938
C     -0.0991195123     1.4458499305     2.692171266
C     -0.5006869041     0.0400130696     2.7387631437
C     1.6079165187     2.8940982509     1.6086884821
C     1.2670413058     1.7647456287     2.4473420517
C     2.4402588915     2.6006109915     -0.685142282
C     2.6355669963     2.4259281561     0.6835573187
C     1.5217650058     1.3674159329     -2.4567532229
C     2.6763798458     1.4810553933     -1.5821167869
C     -0.3660948341     -0.0207503122     -3.0557321835
C     1.035610683     0.0717066776     -2.858455335
C     -2.3380418265     -0.9389237637     -2.2249441077
C     -1.0704432286     -1.2651586091     -2.8541621069
C     -3.3120130239     -1.1495043808     0.0031109579
C     -2.8748542334     -1.7627879063     -1.2627092818
C     -2.2135419474     -1.6614554494     2.1538697329
C     -3.0009432591     -2.0567273999     1.0246859049
C     -1.2330173836     -2.6844363258     2.3348021997
C     0.5191296285     -0.9960947578     2.7124552265
C     0.1079532834     -2.3626731935     2.4899792046
C     2.2331579249     0.7156862352     2.2038842025
C     3.1323732794     1.1596078011     1.1647505143
C     1.8990086395     -0.6559362212     2.368023849
C     3.3380687391     0.3490511378     -1.152740021
C     3.6592010371     0.2221732237     0.26837944
C     1.7719235657     -1.1381197415     -2.4556511996
C     2.9587355525     -0.9713031698     -1.6589369086
C     -0.3890106812     -2.4132516002     -2.4793314159
C     1.0456184776     -2.36287429     -2.2811788893
C     -2.2356690539     -3.0468078896     -0.9551757093
C     -2.4284854393     -3.2796232082     0.4454164397
C     -1.3725441194     -3.6803426365     1.2498437824
C     -0.9844905845     -3.3436560517     -1.5230043163
C     0.8763375423     -3.2554611497     1.5908329348
C     1.3421769299     -3.2779575793     -1.2008036683
C     -0.081692824     -3.9358713627     0.70677735
C     0.1017436882     -3.8362939789     -0.689220454
C     2.6871468519     -1.6057687846     1.609454082
C     3.5397923652     -1.141744799     0.5936746261
C     3.2346779701     -1.8973100554     -0.6308123201
C     2.0882955825     -2.8528943412     1.1200725693
C     2.3864728362     -2.9723572327     -0.3165905067


