60

 C     -4.0401642896     -0.5677212355     -1.0829657549
C     -3.285727752     -1.7782715586     -1.2816316358
C     -2.8890429322     -2.307279405     0.0030419352
C     -3.8705661287     -0.2319279376     0.2665120147
C     -3.1987213336     -1.2811530176     0.9832431786
C     -3.3998256064     1.1308970919     0.4105181154
C     -3.378299605     0.4940803046     -1.7998052351
C     -3.1243183394     1.6085775507     -0.9301378418
C     -2.2173301701     -1.5033972669     -2.1590921202
C     -2.2709234208     -0.0535186312     -2.4932711462
C     -0.9694217193     -2.1966562767     -2.059170584
C     -1.7432729166     -3.1205893113     0.1265696708
C     -0.8310068443     -3.2305670152     -1.0227640064
C     -1.1711316147     -3.1358623018     1.4406161143
C     -2.2488250919     -0.9613921332     1.9918345934
C     -1.3238561881     -1.9841451555     2.2949809008
C     -2.5317982338     1.476884461     1.4639685868
C     -1.8851820599     0.4387991897     2.2689669266
C     -1.8526135811     2.7359464745     1.2705640577
C     -2.021652481     2.464745915     -1.1839103615
C     -1.5840523016     3.2374856447     -0.080296553
C     -1.0906464912     0.6976259253     -2.7126588071
C     -1.0446089102     2.0831263187     -2.2116769792
C     0.1913478854     -1.5095281665     -2.5878018014
C     0.133742463     -0.0612943791     -2.9250335286
C     1.4699715168     -2.0633590309     -2.2765464543
C     0.4717152496     -3.7699062896     -0.781426853
C     1.5706275143     -3.1890709449     -1.4440542016
C     0.1482382633     -3.654916952     1.6479944578
C     0.9274668423     -4.0213007519     0.5807150531
C     0.0048047533     -1.6697565781     2.8007483184
C     0.8950929505     -2.7003272336     2.4770891587
C     -0.5710071119     0.7273096182     2.81286253
C     0.4511756511     -0.3218488464     2.8567987343
C     -0.8005297914     3.1017756139     2.101897235
C     -0.0922544621     2.0837211139     2.8130748966
C     -0.2971890491     3.8945291957     -0.0543171513
C     0.1624862961     3.8870179705     1.3153207169
C     0.2068830374     2.7473310777     -2.1822779299
C     0.6131887013     3.6337551934     -1.0762506891
C     1.3463864084     0.6675671431     -2.9125075339
C     1.3559764616     2.054806929     -2.6209341345
C     2.5962968469     -1.1854942873     -1.9474057699
C     2.5420409252     0.1249211461     -2.277795676
C     2.6603976785     -2.9259577852     -0.461383621
C     2.2570248049     -3.3828903964     0.7675061662
C     2.1504487379     -2.4339346672     1.8492170389
C     3.1555064554     -1.6153396576     -0.6675476036
C     1.8056684881     -0.055950359     2.3988305952
C     2.5640610536     -1.0723192331     1.6739950719
C     3.1855944826     -0.666802091     0.4037824309
C     1.2957245581     2.3324451542     2.5920602429
C     1.4281509949     3.436333851     1.6273509924
C     2.1587560454     1.3096856635     2.182542855
C     1.998741835     3.2872019007     -0.7378640351
C     2.443923798     2.339414724     -1.7041457361
C     3.0683051081     1.1273070944     -1.3609838494
C     3.2419057652     0.7556874856     0.0277308046
C     2.3529357977     3.0422964938     0.6040858345
C     2.8793810561     1.7312030512     0.9812382662


