60

 C     -0.6628594332     0.2962086832     -3.9601952121
C     -1.5908562162     -0.6475315043     -3.4531068829
C     -0.7977576034     -1.7687262683     -2.9171350868
C     0.6628594332     -0.2962086832     -3.9601952121
C     0.5720425843     -1.5882727027     -3.3705219182
C     1.5908562162     0.6475315043     -3.4531068829
C     -0.5720425843     1.5882727027     -3.3705219182
C     0.7977576034     1.7687262683     -2.9171350868
C     -1.6356757224     2.0405971713     -2.5790889427
C     -2.7008425869     -0.1705120859     -2.7517999922
C     -2.7907729822     1.2242833342     -2.4822919058
C     -3.1678929881     -0.8840187813     -1.5727889625
C     -1.0666214417     -2.2665209257     -1.6276574771
C     -2.360201111     -1.9153570728     -1.0098018807
C     0.0797566092     -2.639381348     -0.7369707605
C     1.6356757224     -2.0405971713     -2.5790889427
C     1.3796164443     -2.5660834361     -1.2482316278
C     2.7008425869     0.1705120859     -2.7517999922
C     2.7907729822     -1.2242833342     -2.4822919058
C     3.1678929881     0.8840187813     -1.5727889625
C     1.0666214417     2.2665209257     -1.6276574771
C     2.360201111     1.9153570728     -1.0098018807
C     -1.3796164443     2.5660834361     -1.2482316278
C     -0.0797566092     2.639381348     -0.7369707605
C     -3.3717160986     1.382245219     -1.1667161516
C     -3.7744255309     0.1014785103     -0.6835498
C     -2.5213638246     2.1823414939     -0.3857924815
C     -3.7744255309     -0.1014785103     0.6835498
C     -2.5213638246     -2.1823414939     0.3857924815
C     -3.3717160986     -1.382245219     1.1667161516
C     -0.0797566092     -2.639381348     0.7369707605
C     -1.3796164443     -2.5660834361     1.2482316278
C     1.0666214417     -2.2665209257     1.6276574771
C     2.5213638246     -2.1823414939     -0.3857924815
C     3.3717160986     -1.382245219     -1.1667161516
C     3.7744255309     -0.1014785103     -0.6835498
C     2.360201111     -1.9153570728     1.0098018807
C     3.7744255309     0.1014785103     0.6835498
C     3.1678929881     -0.8840187813     1.5727889625
C     2.5213638246     2.1823414939     0.3857924815
C     3.3717160986     1.382245219     1.1667161516
C     0.0797566092     2.639381348     0.7369707605
C     1.3796164443     2.5660834361     1.2482316278
C     -2.360201111     1.9153570728     1.0098018807
C     -3.1678929881     0.8840187813     1.5727889625
C     -1.0666214417     2.2665209257     1.6276574771
C     -2.7907729822     -1.2242833342     2.4822919058
C     -1.6356757224     -2.0405971713     2.5790889427
C     -2.7008425869     0.1705120859     2.7517999922
C     0.7977576034     -1.7687262683     2.9171350868
C     -0.5720425843     -1.5882727027     3.3705219182
C     2.7008425869     -0.1705120859     2.7517999922
C     2.7907729822     1.2242833342     2.4822919058
C     1.6356757224     2.0405971713     2.5790889427
C     1.5908562162     -0.6475315043     3.4531068829
C     -0.7977576034     1.7687262683     2.9171350868
C     -1.5908562162     0.6475315043     3.4531068829
C     -0.6628594332     -0.2962086832     3.9601952121
C     0.5720425843     1.5882727027     3.3705219182
C     0.6628594332     0.2962086832     3.9601952121


