60

 C     -3.3995594921     -1.0867760322     -1.7977349244
C     -3.956348296     -0.3815151016     -0.6819912165
C     -3.6669460632     -1.16948343     0.5085771933
C     -2.6730600117     -2.2183266047     -1.272016063
C     -2.7634423634     -2.2665232513     0.132547173
C     -1.4305383735     -2.3627365729     -1.9345729025
C     -2.5465358395     -0.4647129868     -2.745803289
C     -1.3267498153     -1.2940191739     -2.8946116453
C     -2.4107151647     0.9282858843     -2.7219026185
C     -3.7872830233     1.0215997345     -0.6374465771
C     -3.1094547787     1.6534142092     -1.7140753262
C     -3.2742572929     1.6466747973     0.5960176031
C     -3.4408651197     -0.5319280685     1.7203830156
C     -3.1806793446     0.9228877983     1.7493383191
C     -2.5301119696     -1.110467477     2.6293070972
C     -1.585086452     -2.5890881064     0.9117368041
C     -1.5624067397     -2.0721788269     2.2457623868
C     -0.2831306863     -2.8045454006     -1.2129424017
C     -0.3122085585     -2.8711502939     0.2441886513
C     0.9381911651     -2.5545218167     -1.8880616455
C     -0.0705428947     -0.738183885     -3.2264674667
C     1.0638304446     -1.5150706189     -2.8680065033
C     -1.0638304446     1.5150706189     -2.8680065033
C     0.0705428947     0.738183885     -3.2264674667
C     -2.1574580465     2.5946612739     -1.161688468
C     -2.1753199746     2.5794608111     0.235890041
C     -0.9381911651     2.5545218167     -1.8880616455
C     -0.9485380384     2.6573638894     0.9753429277
C     -2.0579394013     1.1621471583     2.661135166
C     -1.8112809463     -0.0517328681     3.3275471339
C     -0.9396354051     2.0222218982     2.2955028502
C     -0.3010750987     -1.7301885865     2.904180471
C     -0.5037825334     -0.4856629986     3.6198642143
C     0.9485380384     -2.6573638894     0.9753429277
C     0.9396354051     -2.0222218982     2.2955028502
C     2.1574580465     -2.5946612739     -1.161688468
C     2.1753199746     -2.5794608111     0.235890041
C     2.4107151647     -0.9282858843     -2.7219026185
C     3.1094547787     -1.6534142092     -1.7140753262
C     1.3267498153     1.2940191739     -2.8946116453
C     2.5465358395     0.4647129868     -2.745803289
C     0.2831306863     2.8045454006     -1.2129424017
C     0.3122085585     2.8711502939     0.2441886513
C     1.4305383735     2.3627365729     -1.9345729025
C     1.585086452     2.5890881064     0.9117368041
C     0.3010750987     1.7301885865     2.904180471
C     0.5037825334     0.4856629986     3.6198642143
C     1.5624067397     2.0721788269     2.2457623868
C     2.0579394013     -1.1621471583     2.661135166
C     1.8112809463     0.0517328681     3.3275471339
C     2.5301119696     1.110467477     2.6293070972
C     3.2742572929     -1.6466747973     0.5960176031
C     3.7872830233     -1.0215997345     -0.6374465771
C     3.1806793446     -0.9228877983     1.7493383191
C     3.4408651197     0.5319280685     1.7203830156
C     3.3995594921     1.0867760322     -1.7977349244
C     2.6730600117     2.2183266047     -1.272016063
C     2.7634423634     2.2665232513     0.132547173
C     3.956348296     0.3815151016     -0.6819912165
C     3.6669460632     1.16948343     0.5085771933


