60

 C     -0.5865853128     -4.6658248694     0.6554664363
C     -1.7456328882     -3.8560408433     0.9916208282
C     -2.3933931588     -3.4825592031     -0.1805130101
C     -0.3452116024     -4.4479176407     -0.7662473668
C     -1.457679676     -3.791472482     -1.3117711927
C     0.9663850233     -3.8883010827     -0.9737965249
C     0.5040089947     -4.0837592227     1.3048107384
C     1.5638860049     -3.8228032235     0.3632265443
C     -1.3520793378     -2.80822926     1.9387643469
C     0.0662620985     -2.957450805     2.1314086155
C     -1.9183352751     -1.5135465413     1.8748144949
C     -2.8407354003     -2.1606229943     -0.3333698631
C     -2.8344550273     -1.2386824379     0.7644103075
C     -1.3171781856     -2.6001380074     -2.0538664092
C     -2.3442542366     -1.6731304313     -1.6090785813
C     1.1568679507     -2.7745829165     -1.8647910976
C     -0.0175537879     -2.0582849734     -2.410782374
C     2.3301126793     -1.9833735794     -1.6264093839
C     2.4649804845     -2.8197741851     0.6801184107
C     3.037044812     -2.0986197796     -0.3770189933
C     0.8920908737     -1.807195051     2.3284534215
C     2.1945159945     -1.8239749761     1.7421727288
C     -1.1565865624     -0.3803526236     2.4098595828
C     0.2646948522     -0.523954335     2.5891558934
C     -1.726567691     0.963545221     2.2896065697
C     -3.0546763319     0.0985999484     0.4040486422
C     -2.7159379352     1.1945262692     1.2749589372
C     -2.2923143863     -0.3129939804     -1.891603229
C     -2.9528400563     0.548424966     -0.9512370127
C     0.0521270805     -0.6494738753     -2.735921732
C     -1.1579972831     0.2017125228     -2.6360110211
C     2.4025648793     -0.6159065349     -1.9907008902
C     1.3444803112     0.0469655469     -2.6401672421
C     3.4593220414     -0.7989347731     0.070808207
C     2.8436508253     -0.6007770187     1.368878616
C     3.1335877867     0.1159955865     -0.9208797928
C     1.104769339     0.6803665684     2.523446641
C     2.3257363005     0.6576266382     1.7304705132
C     -0.9462570393     2.0824236774     2.6745346432
C     0.5044711283     1.9263530184     2.7562730252
C     -1.1881449798     3.3819386039     2.117526147
C     -2.6854493776     2.3942530945     0.4881923423
C     -2.7023227689     1.9538979074     -0.9142362645
C     -1.9033119071     3.4795346797     0.8791535227
C     -1.03669913     1.6113420179     -2.6773218385
C     -1.8245779015     2.507497723     -1.8313027304
C     1.4087113754     1.4737015479     -2.6081391543
C     0.2476903571     2.2257601013     -2.7893228138
C     2.8330124664     1.4669815302     -0.5899668556
C     2.6022400141     1.8023641142     0.8333158091
C     2.1816533566     2.2016585159     -1.5865903768
C     1.1070110126     3.1267589559     2.2504358537
C     0.0735031547     4.0419703838     1.942068792
C     2.0142442458     3.0335456676     1.1254849702
C     -1.0330841884     4.1556345849     -0.1122316995
C     -0.975060888     3.6505858731     -1.4281481052
C     0.2888853118     3.4709231082     -2.0504082273
C     1.4824725884     3.4407918475     -1.2691163924
C     0.2057926212     4.4213031255     0.566950322
C     1.4481465508     3.8816943013     0.060514172


