60

 C     0.9728068141     3.9943528818     0.6907173343
C     0.9728068141     3.9943528818     -0.6907173343
C     -0.4228077374     3.8870699131     -1.149718527
C     -0.4228077374     3.8870699131     1.149718527
C     -1.2771755002     3.786950967     0.
C     -0.4657987575     2.9225267442     2.1619617634
C     1.7642817086     3.0470088489     1.4240028289
C     0.9037099299     2.4186484241     2.4013273228
C     2.6692990277     2.2370592949     0.7290370224
C     1.7642817086     3.0470088489     -1.4240028289
C     2.6692990277     2.2370592949     -0.7290370224
C     -0.4657987575     2.9225267442     -2.1619617634
C     0.9037099299     2.4186484241     -2.4013273228
C     -1.5773904469     1.9976175853     -2.2319739541
C     -2.2921121033     2.7967849701     0.
C     -2.4945236072     1.9612358542     -1.1505021894
C     -1.5773904469     1.9976175853     2.2319739541
C     -2.4945236072     1.9612358542     1.1505021894
C     -1.3581112088     0.7917464646     2.9498795334
C     1.1128064624     1.0973458943     2.8382443442
C     -0.0487221869     0.409874292     3.3378969948
C     2.9085780787     0.8794541576     1.1720121325
C     2.1784991739     0.2778746135     2.2275050254
C     2.9085780787     0.8794541576     -1.1720121325
C     3.2601073147     0.1051707438     0.
C     1.1128064624     1.0973458943     -2.8382443442
C     2.1784991739     0.2778746135     -2.2275050254
C     -1.3581112088     0.7917464646     -2.9498795334
C     -0.0487221869     0.409874292     -3.3378969948
C     -2.1291711976     -0.441077646     -2.6714759837
C     -3.0528859002     0.6701433229     -0.7041811772
C     -3.0528859002     0.6701433229     0.7041811772
C     -2.879586208     -0.5355566587     -1.4489573703
C     -2.1291711976     -0.441077646     2.6714759837
C     -2.879586208     -0.5355566587     1.4489573703
C     -0.0544728866     -1.018177298     3.4516554089
C     -1.3743929966     -1.528673893     3.1181996601
C     2.0676455946     -1.1991446389     2.231152054
C     0.9215542763     -1.8210931101     2.8747749269
C     3.1506274164     -1.2605540578     0.
C     2.6503564901     -1.9382461371     1.1763604631
C     2.0676455946     -1.1991446389     -2.231152054
C     2.6503564901     -1.9382461371     -1.1763604631
C     -0.0544728866     -1.018177298     -3.4516554089
C     -1.3743929966     -1.528673893     -3.1181996601
C     0.9215542763     -1.8210931101     -2.8747749269
C     -1.2041144421     -2.7063063182     -2.3317525091
C     0.2233767942     -2.9940650581     -2.2818372844
C     -2.8153055793     -1.7714086659     -0.7210267529
C     -2.8153055793     -1.7714086659     0.7210267529
C     -1.9772372998     -2.8678087824     -1.1758568415
C     -1.2041144421     -2.7063063182     2.3317525091
C     0.2233767942     -2.9940650581     2.2818372844
C     -1.9772372998     -2.8678087824     1.1758568415
C     -1.4040757846     -3.5007726423     0.
C     2.0389318283     -3.159220403     0.7017981051
C     2.0389318283     -3.159220403     -0.7017981051
C     0.7583301188     -3.620234624     -1.1737249382
C     0.7583301188     -3.620234624     1.1737249382
C     -0.0686834237     -3.9094698919     0.


