60

 C     -1.5314393272     -4.4526894207     -0.5583510814
C     -0.2081555367     -4.5096038132     -1.1012068433
C     0.711643994     -4.6936980169     -0.0255028682
C     -1.3618161496     -4.1899768025     0.8795289605
C     -0.0332162051     -4.3820491512     1.2384051669
C     -1.9865182278     -2.9327846693     1.2157513356
C     -2.1476692086     -3.3022984098     -1.0775166717
C     -2.5965088376     -2.4521285479     -0.0100723581
C     -0.0121568704     -3.3644869745     -1.9895937708
C     -1.2603459897     -2.6482826489     -2.031746333
C     1.1912058784     -2.5853669262     -1.9727557848
C     1.8715925603     -3.9552969127     -0.0050212867
C     2.1942156536     -2.9811938586     -1.0116790476
C     0.6880422587     -3.3584334011     1.9472772272
C     1.9407787442     -3.2258519739     1.2801363619
C     -1.3518588674     -1.9570762942     2.0389115808
C     0.0586256772     -2.1374139928     2.3772409858
C     -1.9138642167     -0.6144817655     1.98950751
C     -2.8356976532     -1.0953343108     -0.2482326631
C     -2.812278302     -0.2155333902     0.8970939895
C     -1.3548835119     -1.248784801     -2.2349554713
C     -2.424748688     -0.5553925496     -1.5319045567
C     1.1103218539     -1.1603232354     -2.3749934731
C     -0.1764553854     -0.4817487521     -2.5765657698
C     2.1781279312     -0.3159137622     -2.0053440874
C     2.8918695395     -1.9237603391     -0.3178533603
C     2.6108267919     -2.0087688091     1.1133588693
C     2.9904829667     -0.6886010376     -0.8767981847
C     0.888644058     -0.9352114738     2.4821609595
C     2.1678587651     -0.8396366209     1.7954348563
C     -1.1981628176     0.4284274372     2.5904409792
C     0.2379400159     0.2937209231     2.7546092731
C     -1.4817546154     1.832037606     2.3738755685
C     -3.0735635827     1.1526771905     0.682488399
C     -2.4517770598     2.2110102039     1.4621296489
C     -2.5307069913     0.8249554707     -1.7053788492
C     -3.0691226153     1.6269545914     -0.6586053485
C     -0.2499858074     0.9906266285     -2.6146858728
C     -1.4909337399     1.6033928202     -2.3178111461
C     2.1147351988     1.1296858198     -2.0136154846
C     0.9534331625     1.8229496168     -2.4142577505
C     3.1105874822     0.4845915356     -0.0337907511
C     2.6199083041     0.4635324165     1.2965424925
C     2.8814502112     1.6160369733     -0.8793236551
C     0.8342932497     1.5845543573     2.5794169304
C     -0.2256927631     2.5706926074     2.4645837524
C     2.0375544031     1.7076509369     1.8054292874
C     -0.0539926626     3.7554858636     1.7561602421
C     -2.2050451532     3.3758568375     0.5856541063
C     -2.5800711078     2.9760959419     -0.7355669836
C     -1.5998654748     2.9859800088     -1.7784915399
C     -1.0630565763     4.164860091     0.7702523907
C     0.8431364658     3.1999052364     -1.9833549723
C     -0.4709556076     3.7765375459     -1.6343164646
C     -0.3126610469     4.5393273955     -0.4140715616
C     2.6161995726     2.8527565853     -0.3251497995
C     2.2210447336     2.9237726693     1.0817441079
C     1.2521510005     3.9921926376     1.1673529735
C     1.7751324395     3.7420615264     -1.0596906851
C     1.0731581872     4.5837933879     -0.1072839788


