60

 C     1.1127483245     4.4368332522     0.6559950188
C     0.8610528357     4.3795207795     -0.7970270631
C     -0.5347033368     4.4657220647     -0.9759306907
C     -0.1580830451     4.2081686439     1.3191895404
C     -1.1805226948     4.3121493209     0.3804288378
C     -0.0368037189     3.0022116194     2.1274783651
C     1.9707313126     3.4080261552     0.995612093
C     1.3443314444     2.5494076964     1.9951063887
C     1.5776720563     3.2679176257     -1.3357719455
C     2.3983878932     2.7454746586     -0.2336358201
C     0.9209090142     2.2861896014     -2.1756283228
C     -1.1707280895     3.5726837639     -1.8255332935
C     -0.4656486771     2.4941568714     -2.4615554035
C     -2.1660278934     3.2901891985     0.2778185099
C     -2.3115148389     2.9767503638     -1.1248680593
C     -1.0381836002     2.0187978233     2.1309540543
C     -2.1760455452     2.1803905466     1.1907699607
C     -0.6395701458     0.6558661492     2.5333361904
C     1.6985368297     1.2044192796     2.0526696764
C     0.7395659125     0.2179212516     2.5059011418
C     2.805239136     1.4402896287     -0.1870521396
C     2.7487346296     0.7555087879     1.1265510845
C     1.4140114407     0.9107046798     -2.1813952429
C     2.5736336948     0.5877027714     -1.36050948
C     0.5572839074     -0.2018697631     -2.5337307888
C     -1.3420532695     1.345164832     -2.4376797048
C     -2.4736055236     1.6704597113     -1.5597990348
C     -0.889424427     0.0323713364     -2.52056608
C     -2.8292685618     0.981200119     0.7542698205
C     -2.9330157034     0.674610877     -0.6646559729
C     -1.6207205498     -0.3432359006     2.4952228892
C     -2.7991207693     -0.1395513443     1.6388784377
C     -1.3197838264     -1.7424655969     2.515715432
C     1.0721095617     -1.2073326061     2.4261346291
C     0.0137179368     -2.2194476038     2.3456209318
C     3.1351510921     -0.5506701263     1.191255578
C     2.3646997692     -1.5468536021     1.9298037308
C     3.0579071328     -0.7140439396     -1.2967203309
C     3.6167178239     -1.1987810348     -0.0333820844
C     1.0401112198     -1.5788753856     -2.4068611117
C     2.3606188415     -1.8214155489     -1.8893749081
C     0.080508581     -2.6177594356     -2.2529797898
C     -1.8216171996     -1.02713973     -2.099078123
C     -2.8668203346     -0.6939127346     -1.1187416834
C     -1.3443829087     -2.3514336758     -2.1563411436
C     -3.2580604651     -1.3698287981     1.2174722587
C     -2.4234740663     -2.4040188823     1.8607392952
C     -3.3075761116     -1.6940808801     -0.1894303555
C     -1.9107379057     -3.345224953     -1.2820598858
C     -2.229970028     -3.4517932951     0.9996498952
C     -2.8348874242     -3.0276948376     -0.313777103
C     0.210508396     -3.4188511318     1.5048515144
C     0.3781152751     -3.727121573     -1.3458525246
C     -0.9161484811     -3.9590068279     0.7716603245
C     -0.7929672393     -4.0572835796     -0.6599585928
C     2.5743597835     -2.7811891617     1.2390367062
C     3.4348180114     -2.5599722124     0.0593783597
C     2.6707962534     -2.9942919107     -1.0835159534
C     1.4812597665     -3.5859216431     0.8713104004
C     1.5772283045     -3.7397416945     -0.6093985329


