60

 C     0.7215991949     -4.5423840528     0.2345379856
C     0.0620269201     -4.0901445379     1.4507108989
C     -1.2770442487     -3.8720631475     1.1328444921
C     -0.1594726365     -4.3063309882     -0.8982083437
C     -1.4116986196     -4.0036776371     -0.3764598838
C     0.4613760374     -3.3426875008     -1.785152038
C     1.8827405916     -3.7948837604     0.0509526507
C     1.8174385576     -3.1842842214     -1.2652050482
C     0.8116420854     -2.9750450729     1.9748170184
C     2.0301537343     -2.8884497428     1.1673832053
C     0.1659789453     -1.7542319375     2.3681419106
C     -1.9512812961     -2.7153497751     1.5174587942
C     -1.2836160256     -1.6258995335     2.2036330934
C     -2.1521417449     -2.9143383066     -0.8380487208
C     -2.7604884863     -2.3397732043     0.3590146126
C     -0.2373873342     -2.1670365211     -2.2327004105
C     -1.6378142902     -1.9820638333     -1.8199228981
C     0.5346591885     -0.9530906343     -2.5704250126
C     2.4857471966     -2.0068622734     -1.4536339007
C     1.9290348033     -0.9574725744     -2.2837568953
C     2.6799562557     -1.6621877789     0.9913745113
C     3.1323660471     -1.3451053004     -0.3418467973
C     0.9626154575     -0.5277362767     2.422827995
C     2.2907875553     -0.5400650842     1.8310772113
C     0.301818966     0.7610279096     2.6446685205
C     -1.9048366165     -0.3076200008     2.1472883212
C     -1.1327779718     0.9041942569     2.390987037
C     -3.3402406693     -1.1428426522     0.2988295626
C     -3.119123438     -0.1741887303     1.3717486673
C     -2.2657163519     -0.6725893375     -1.8959356946
C     -3.3506462308     -0.4111525596     -0.9636645768
C     -0.1128448733     0.3584784932     -2.7013149332
C     -1.5471997259     0.4938082978     -2.4292734189
C     0.7055814408     1.533471694     -2.6287187669
C     2.6531332604     0.2447282069     -1.9826867026
C     3.3796136849     0.0027993284     -0.7418899487
C     2.0761156146     1.4776529453     -2.1949889116
C     2.948118293     0.6957571506     1.5646124249
C     3.4563813976     0.9991539287     0.2099660952
C     1.1163932586     1.9397641934     2.6061341332
C     2.4412841697     1.8744941957     2.0865368951
C     0.5793195901     3.1812391077     2.116116119
C     -1.6427450466     2.1959049401     1.8910084848
C     -0.7091416935     3.268706923     1.6393800292
C     -3.5377726354     1.0474647309     0.853238502
C     -3.72521046     0.8845241287     -0.6181334102
C     -2.8134286536     2.2347073173     1.071329286
C     -2.053664944     1.8101328851     -2.1446233556
C     -3.1586574149     1.9865544594     -1.2411411648
C     -2.7395849624     2.9078338598     -0.2161412541
C     0.1922481533     2.7992683381     -2.1493850558
C     -0.630551625     3.9169781154     0.2959130759
C     -1.1535435856     2.9288157613     -1.9047488214
C     -1.5766937114     3.576525315     -0.6535629371
C     2.3650560417     2.6065708957     -1.3091372592
C     3.0977931555     2.3658708012     -0.1203312978
C     2.6322546472     2.9654295745     1.0966453889
C     1.5179380837     3.7637184529     1.1222898785
C     1.1892985144     3.4411668922     -1.2834184742
C     0.7648541497     4.0328136767     -0.0670113681


