60

 C     -0.132248005     0.7336813474     -4.0922344838
C     -1.4138932405     0.8977884291     -3.6862464201
C     -2.0129380747     -0.4314479916     -3.4120783873
C     0.132248005     -0.7336813474     -4.0922344838
C     -0.9440335417     -1.3732665833     -3.3667747126
C     1.4138932405     -0.8977884291     -3.6862464201
C     0.9440335417     1.3732665833     -3.3667747126
C     2.0129380747     0.4314479916     -3.4120783873
C     0.6731865182     2.0533540962     -2.1120060156
C     -1.7574234371     1.7381540626     -2.5740436433
C     -0.7392231522     2.2499479023     -1.7061963777
C     -2.9061855959     -0.29435932     -2.3740691042
C     -2.9326962585     1.1417434759     -2.000194707
C     -2.9141806283     -1.2503557681     -1.3096228543
C     -0.6731865182     -2.0533540962     -2.1120060156
C     -1.7021147126     -2.0395712336     -1.0846407917
C     1.7574234371     -1.7381540626     -2.5740436433
C     0.7392231522     -2.2499479023     -1.7061963777
C     2.9061855959     0.29435932     -2.3740691042
C     2.9326962585     -1.1417434759     -2.000194707
C     1.7021147126     2.0395712336     -1.0846407917
C     2.9141806283     1.2503557681     -1.3096228543
C     1.3500009112     2.3806381418     0.3169564883
C     -1.0841366594     2.411408885     -0.281172925
C     -0.036496442     2.4238376898     0.7390835062
C     -3.3391495862     1.4888119202     -0.7470044011
C     -2.4171511987     2.157593594     0.1439065378
C     -3.7450959054     -0.8574049108     -0.2113389729
C     -4.05231835     0.509542287     0.011235082
C     -3.5473921943     -1.4516340764     1.0712059657
C     -1.3500009112     -2.3806381418     0.3169564883
C     -2.3654903755     -2.1948100121     1.3334684975
C     1.0841366594     -2.411408885     -0.281172925
C     0.036496442     -2.4238376898     0.7390835062
C     3.3391495862     -1.4888119202     -0.7470044011
C     2.4171511987     -2.157593594     0.1439065378
C     3.7450959054     0.8574049108     -0.2113389729
C     4.05231835     -0.509542287     0.011235082
C     2.3654903755     2.1948100121     1.3334684975
C     3.5473921943     1.4516340764     1.0712059657
C     1.9724235435     1.8371073072     2.6647669504
C     -0.4043801207     2.0476670212     2.1224356349
C     0.6545368438     1.6638241108     3.012265631
C     -2.7585060209     1.7071794183     1.4974729217
C     -3.8391748863     0.7783560867     1.4236285815
C     -3.7749552261     -0.455054936     2.1202975964
C     -1.7173026821     1.5334314669     2.4595245438
C     -1.9724235435     -1.8371073072     2.6647669504
C     -2.7640892006     -0.6275133817     3.0553152873
C     -1.8226698441     0.376256414     3.3432350646
C     0.4043801207     -2.0476670212     2.1224356349
C     0.5821015733     0.3312832505     3.6428256074
C     -0.6545368438     -1.6638241108     3.012265631
C     -0.5821015733     -0.3312832505     3.6428256074
C     2.7585060209     -1.7071794183     1.4974729217
C     3.8391748863     -0.7783560867     1.4236285815
C     3.7749552261     0.455054936     2.1202975964
C     2.7640892005     0.6275133817     3.0553152873
C     1.7173026821     -1.5334314669     2.4595245438
C     1.8226698441     -0.376256414     3.3432350646


