60

 C     -1.3513933757     3.8925972289     1.373016565
C     -0.634234343     4.1734758168     0.2027722541
C     -1.3107353957     3.5465353516     -0.9295716887
C     -2.4614084606     3.0679451285     1.0604788377
C     -2.5063217794     2.9268145842     -0.3750110277
C     -2.359576511     1.8678659238     1.8346084136
C     -0.4688695374     3.1442685159     2.265816004
C     -1.1115177178     1.8974459376     2.5857931256
C     0.7609622537     3.8755060818     0.4642945195
C     0.8436634227     3.1652046087     1.7759888008
C     1.5213678747     3.4298288765     -0.571159541
C     -0.5491477429     2.8614622385     -1.9158779502
C     0.8883050699     3.0356071698     -1.8443288904
C     -1.053143391     1.6001849995     -2.5071155824
C     -2.9470834981     1.7225620062     -0.8930866661
C     -2.3101521086     1.1222575141     -2.0467546158
C     -2.8322809569     0.6277156983     1.3280217864
C     -3.3181057276     0.6318863432     -0.0133920676
C     -2.267800856     -0.6058044877     1.8707332703
C     -0.3435223424     0.7305161606     2.7646921481
C     -1.0032401438     -0.5774830813     2.5659552797
C     1.6772643492     2.0211645967     1.9364663346
C     1.1049499571     0.8582294509     2.6227526725
C     2.641911395     2.5139426585     -0.3084605798
C     2.7515856328     1.8157191495     0.9556771497
C     1.7275400378     2.0588186864     -2.3672511553
C     2.8871356643     1.8266875298     -1.4961222967
C     -0.1140134721     0.5716702626     -2.9881482053
C     1.2885751003     0.8104078179     -2.8808283655
C     -0.4819445085     -0.8011231205     -2.9953642236
C     -2.6509066305     -0.2855180411     -2.0544584802
C     -3.3083096343     -0.57937942     -0.7890294014
C     -1.7875873828     -1.2325200079     -2.5799444272
C     -2.6810007156     -1.8327929067     1.2267898182
C     -3.1344621516     -1.7955766679     -0.177141528
C     -1.9942859997     -3.0256959796     1.4245944693
C     -0.194189297     -1.803869401     2.6162160327
C     -0.7173362514     -3.0389118075     2.0735041888
C     1.8591213319     -0.343576578     2.610620797
C     1.2170955899     -1.6633898297     2.6158303824
C     3.3828079577     0.5497627243     0.9016679809
C     3.0470190549     -0.4333740867     1.8710347723
C     3.1772642179     0.4358849363     -1.5284404249
C     2.1963724119     -0.2113682549     -2.4087952729
C     3.5561615393     -0.1808621742     -0.3519418328
C     0.444416846     -1.8469933409     -2.6179398423
C     1.7642517345     -1.5400420492     -2.1685691107
C     -1.6958954686     -2.5714601389     -2.007753887
C     -2.4581892912     -2.8880068714     -0.8723046075
C     -1.8785374316     -3.721830193     0.1338313651
C     -0.2974046012     -2.9673861988     -2.0752278269
C     0.1237943706     -3.883137067     1.2785367301
C     -0.5726185012     -4.176389061     0.0256136139
C     0.2749323568     -3.7443205144     -1.0538230662
C     2.0439083041     -2.5477165057     1.8160770223
C     3.0780876161     -1.7528556634     1.2665935276
C     3.2095958859     -1.583212346     -0.1217563763
C     2.3276749686     -2.2977186043     -1.0295117568
C     1.4383786398     -3.4975849972     0.9823833007
C     1.5610716419     -3.3520690011     -0.4812504659


