60

 C     3.9011487232     -1.4146407483     0.5186047805
C     3.251807048     -2.4981273616     -0.0299079357
C     2.2299776098     -2.9439662525     0.9367218783
C     3.2371184185     -1.1157129117     1.8214825293
C     2.1515978356     -2.0155779372     2.0185795427
C     3.0616284467     0.255356837     1.9211684592
C     4.0216969609     -0.1868926336     -0.1949085903
C     3.7210364576     0.8772572436     0.7467510235
C     3.4691494044     -0.107009279     -1.4991565262
C     2.5988399855     -2.4158005551     -1.3015059117
C     2.7099159688     -1.2228724472     -2.0249802244
C     1.0902634801     -3.3648835682     0.2551184127
C     1.2739293651     -3.0289695736     -1.1536892004
C     -0.1739746358     -3.2505044694     0.886116962
C     0.8529434659     -1.5389377613     2.4242059908
C     -0.2888149448     -2.3521564069     2.0378150675
C     1.8041619195     0.7831115433     2.4375897147
C     0.6851378906     -0.1141205398     2.6936825901
C     1.5424631391     2.151509662     2.1244741562
C     3.2245617615     2.0770324318     0.2917263164
C     2.3114119743     2.7885228588     1.1198999904
C     2.771249255     1.1044713175     -1.9032974738
C     2.731333217     2.2136472674     -1.08369017
C     1.5264141021     -0.6899651088     -2.7093485666
C     1.5707158785     0.7317216505     -2.6604859686
C     0.1574888019     -2.6101310328     -1.9024997289
C     0.2813817307     -1.3855300312     -2.7071467647
C     -1.2812545843     -3.3846901018     -0.0015808781
C     -1.1226203891     -2.9591482359     -1.3652867815
C     -2.5912257371     -3.007724095     0.4173458092
C     -1.5841993117     -1.8291441295     2.3167865751
C     -2.7452049768     -2.2770849943     1.6115909393
C     -0.6772546564     0.4546098951     2.7264144827
C     -1.7632153919     -0.4307382677     2.6301713048
C     0.1783967092     2.6808521242     2.0484804432
C     -0.9231399711     1.8685113689     2.3636145755
C     1.3942786409     3.5268402401     0.2869561214
C     1.5324747633     3.0610543715     -1.0432753257
C     0.1333658415     3.592791584     0.9183244314
C     0.3828530283     1.5231649002     -2.6296492214
C     0.3534322025     2.7498763529     -1.8157899341
C     -0.8818127786     -0.5954715181     -2.8938075106
C     -0.8339115625     0.8249933005     -2.8599858633
C     -2.3445256959     -2.2194565339     -1.712716298
C     -3.2695882916     -2.2995862594     -0.6290337883
C     -2.1879475249     -1.0085064582     -2.3793692401
C     -3.6203901058     -1.1609241112     1.363490509
C     -3.0609701804     -0.0361079149     2.0212618447
C     -3.8360278218     -1.103950884     -0.0613794214
C     -2.1860885001     2.2139824751     1.7290731287
C     -3.1951029536     1.2218862011     1.4712207379
C     -0.9959667002     3.6236101477     0.0942865342
C     -0.8951710163     3.1839538279     -1.2872397582
C     -2.1971021845     3.102832419     0.62242702
C     -2.1108899513     1.3000568597     -2.3264038691
C     -2.9272385409     0.1710129682     -1.9680613898
C     -3.7023677617     0.1575760203     -0.7508612997
C     -3.6126346468     1.3410839945     0.0602293092
C     -2.1538949941     2.4808434543     -1.5877380786
C     -2.9896361164     2.5061717054     -0.4328155613


