60

 C     1.3530258591     -4.2024338786     0.7081281322
C     2.4488682248     -3.3241140246     0.5076054428
C     2.3493358077     -2.3052597414     1.4963679457
C     0.532715218     -3.726954951     1.8047681192
C     1.1189061981     -2.5229521792     2.2842277443
C     -0.8308227161     -3.7558203071     1.3754027849
C     0.5659369334     -4.2591244091     -0.4579663353
C     -0.8188537776     -4.1131465922     -0.0739293548
C     2.4067651109     -2.9149644023     -0.885849171
C     1.1695129647     -3.407480529     -1.477094135
C     2.8217810601     -1.6476060415     -1.1865612026
C     2.773480853     -0.9870147157     1.2096548883
C     3.2458435953     -0.7612109656     -0.1201625253
C     2.1572529931     0.1464462801     1.9301750149
C     0.3012821045     -1.391248013     2.6211084488
C     0.8346432446     -0.026607805     2.529275623
C     -1.6643049926     -2.7343190123     1.7893680608
C     -1.1123107057     -1.5910972072     2.5032760882
C     -2.7282216916     -2.2373602941     0.9259225841
C     -1.6555946461     -3.4565905543     -0.9394896625
C     -2.7604300624     -2.6368992132     -0.4358560687
C     0.3521371334     -2.5240256109     -2.2324540829
C     -1.0751913188     -2.7419875603     -2.1133576489
C     2.1107162002     -0.7976728583     -2.1314840473
C     0.8132526512     -1.1474444088     -2.5705913238
C     3.248634487     0.5541062013     -0.6487219595
C     2.4840119651     0.5621242003     -1.889836835
C     2.5650769149     1.428302908     1.5423442593
C     3.1932241814     1.6165308536     0.2336757201
C     1.787009377     2.620569992     1.7972365493
C     -0.0624939958     1.1199090925     2.5506321763
C     0.4375449804     2.4820212976     2.2539352808
C     -1.9542156445     -0.4771049403     2.2595588274
C     -2.9580142577     -0.8717592887     1.2550127355
C     -1.4940399854     0.8469743263     2.380352234
C     -3.3340320237     0.0771047661     0.2615710486
C     -3.0289092931     -1.657579893     -1.4213188922
C     -1.9286823984     -1.6981323243     -2.3977427605
C     -3.2603224656     -0.3201548366     -1.117440168
C     -0.1302617146     -0.0309254586     -2.7549909968
C     -1.5126338015     -0.3557804532     -2.6859379977
C     -2.433308712     0.5122353365     -2.0227987697
C     1.6327187781     1.6624626435     -2.1592276909
C     0.240278421     1.3708015599     -2.501448504
C     2.7745811411     2.8578406969     -0.2710251512
C     2.1325590003     3.5959882269     0.7706920288
C     1.9749335094     2.9022393209     -1.4923181337
C     1.1122846401     4.3395300239     0.1545112995
C     0.9820919518     3.861774285     -1.2697735104
C     -0.5068825308     3.4994743399     1.7917150677
C     -0.1393825026     4.3920105943     0.701663218
C     -2.3159127821     1.8358949882     1.7307787338
C     -3.0627730102     1.427916077     0.5302836701
C     -1.8465510003     3.121944038     1.5307942516
C     -2.1099856305     1.8366160478     -1.7108573319
C     -0.7908706692     2.3474924351     -2.1194983537
C     -0.379710897     3.6117902883     -1.5495446306
C     -1.1080201187     4.1471042868     -0.4044142371
C     -2.7409127257     2.3576193662     -0.5125702741
C     -2.1767595298     3.4899478967     0.1242233771


