60

 C     -0.8910354205     -4.746769294     0.1386881448
C     0.4853201291     -4.8159594786     -0.1936365706
C     1.2097188939     -4.1674804799     0.8155094675
C     -1.0106131801     -3.9772539932     1.3870295405
C     0.262007378     -3.5924212952     1.8241737201
C     -1.995296834     -2.9270937353     1.2249461347
C     -1.4905133833     -3.8975342327     -0.8139311107
C     -2.3426785214     -2.9171400622     -0.1808402145
C     0.7119271287     -3.998374025     -1.4151353693
C     -0.5352592102     -3.436110596     -1.8224620387
C     2.1700644208     -3.285531583     0.2177566302
C     1.8135289263     -3.1331102729     -1.2327300128
C     2.5268504264     -2.1682269669     0.9073867157
C     0.4945336468     -2.2631966162     2.3602410001
C     1.7775081195     -1.7043009993     2.091087376
C     -1.8774301581     -1.6957308145     1.9080327334
C     -0.6068172596     -1.3197740388     2.5397950718
C     -2.6830242709     -0.6574666495     1.3678675087
C     -2.6275530705     -1.7174629258     -0.8398700289
C     -3.1104469061     -0.684860138     0.0093947277
C     -0.6066097802     -2.0995529527     -2.2976733664
C     -1.8270107102     -1.3217917859     -2.0137432212
C     1.8229559662     -1.8460288107     -1.8073393291
C     0.62897476     -1.3577314951     -2.4961686831
C     3.0203085837     -1.0045109006     0.2184791142
C     2.7169789093     -0.838171572     -1.1899856554
C     2.0141552731     -0.3278136403     2.191206483
C     2.9039448407     0.0929449381     1.0864483174
C     -0.3401359245     0.0938590157     2.7616348003
C     1.029181328     0.5697283308     2.6675388756
C     -2.5350270165     0.7180017462     1.7726175719
C     -1.4085564459     1.1064467375     2.5551716643
C     -3.2171759652     0.6795880559     -0.4281280176
C     -3.0401087042     1.5514443366     0.7143032673
C     -1.8543007547     0.0271649924     -2.3685572214
C     -2.6465305911     1.0263815073     -1.6433974681
C     0.5648149467     0.043858565     -2.8730786912
C     -0.697856567     0.7015494784     -2.9108354687
C     2.716288863     0.4563947961     -1.6763697786
C     1.7106885266     0.8814035255     -2.6461562273
C     2.9357747439     1.4328885534     0.6138164829
C     3.0054995701     1.607720628     -0.8126100451
C     1.311970174     1.9690709762     2.4512207891
C     2.2641763156     2.410357758     1.387583372
C     -1.0754397014     2.4979069795     2.5052989554
C     0.3137109385     2.9182528793     2.5638987637
C     -2.5280100575     2.8426717548     0.5403947445
C     -1.7045656898     3.3644370359     1.5573577394
C     -2.0086330091     2.3175925556     -1.8099926076
C     -0.8320268776     2.1192389081     -2.6334847292
C     -1.9968690659     3.2513647524     -0.769032734
C     1.5679058793     2.2696153265     -2.5054808479
C     2.3915137936     2.7346238849     -1.387723447
C     0.3049911928     2.9132564677     -2.4157318486
C     1.7163159623     3.5945622248     0.7892740762
C     0.5461057448     3.9489663114     1.5521955656
C     -0.6597194121     4.1687364207     0.9145232934
C     -0.7997332431     4.0516731123     -0.524816983
C     1.6614768851     3.6817619504     -0.6291398653
C     0.3497851639     3.857935149     -1.2968214662


