60

 C     -0.0171534896     -4.6859190093     -0.4336688991
C     -0.7532812219     -4.4888312248     0.711979351
C     -1.9513924192     -3.7401264071     0.4441314084
C     -0.6691633554     -3.95399265     -1.5094030511
C     -1.8731728532     -3.345172273     -0.9612375059
C     0.2812150346     -3.0576470421     -2.023760009
C     1.3054779521     -4.0893771314     -0.2088478964
C     1.5498843972     -3.2004155111     -1.2560797043
C     0.0704269666     -3.78447633     1.7266727131
C     1.3730604653     -3.5502281599     1.144285685
C     -1.9551363718     -2.6808570287     1.3905544405
C     -0.6778677922     -2.6834198684     2.1475195631
C     -2.5518371155     -1.4622148762     1.0992169409
C     -2.2324221309     -2.0277790321     -1.3089675302
C     -2.9505625151     -1.2610197952     -0.2945586424
C     -0.0852576702     -1.7463182517     -2.4861175264
C     -1.4065596093     -1.2289320766     -2.2197622203
C     0.9708313     -0.8153953464     -2.6308914755
C     2.4068995513     -2.0790897124     -1.0600662964
C     2.2570943606     -1.0109298538     -1.9731435684
C     2.0261503081     -2.3257320453     1.3809404837
C     2.8222430878     -1.7437070522     0.2929928721
C     -0.049720703     -1.431019567     2.4800851506
C     1.3850138008     -1.366605645     2.294169767
C     -2.1750630188     -0.2800136009     1.8711682529
C     -0.8346109557     -0.2187086339     2.4741126117
C     -2.8503950653     0.9068752514     1.5601148929
C     -3.4287570606     -0.0178288013     -0.6512390342
C     -3.6898410427     0.9551514595     0.3845281976
C     -1.6598054813     0.203406891     -2.3609458617
C     -2.8429021032     0.7112009446     -1.7618621851
C     0.7349657724     0.5916445031     -2.745625185
C     -0.5602110934     1.1460267955     -2.6100640951
C     2.831626212     0.2786147199     -1.7333470968
C     1.9399889886     1.2853621931     -2.3072802556
C     3.4170070893     -0.4781169082     0.5045371949
C     3.5048569687     0.5354787234     -0.5446332882
C     1.9948186615     -0.1133582429     2.4690256687
C     3.1434132989     0.2251950537     1.702333699
C     -0.1769337852     1.0873827734     2.5944390196
C     1.2321653167     1.0980672526     2.6694832078
C     -2.2223408764     2.2265419484     1.7108529294
C     -0.862524814     2.3273407318     2.1431000435
C     -3.6238512698     2.2467703164     -0.1626298671
C     -2.9673275327     2.1032759002     -1.4290176974
C     -2.7176076796     3.0298457275     0.647015977
C     -0.6399980638     2.5442855987     -2.1329705072
C     -1.8377300912     2.9830376501     -1.5003991209
C     -1.7691196404     3.6751674145     -0.2031165882
C     1.8752271572     2.5520117586     -1.7871345029
C     0.5759005717     3.2152057711     -1.7278046563
C     3.3837824673     1.86286908     0.0670669191
C     3.1487566842     1.6439705014     1.4618940749
C     2.0208088506     2.2121548483     2.1156864413
C     2.649347911     2.8743078956     -0.5732332963
C     -0.0889316251     3.3881369891     1.585960152
C     -0.5328251076     3.9910623296     0.3404553703
C     0.5902232076     3.9803913365     -0.5385771464
C     1.3683699974     3.28890909     1.5122372387
C     1.7947474745     3.6975404277     0.2098248431


