60

 C     -0.451855824     -4.1032675982     -0.7218377942
C     -1.5991339987     -3.7754975615     -0.0651302503
C     -1.2524544378     -3.463778863     1.3525252725
C     0.6471645372     -4.1269225804     0.2878093784
C     0.1586818104     -3.4974092311     1.4938088241
C     1.7760426589     -3.6625360013     -0.3305369027
C     -0.0040092121     -3.2923165282     -1.8308138813
C     1.4099140826     -3.1651963114     -1.6599758114
C     -0.7499321139     -2.1471552948     -2.2344573089
C     -2.4647570647     -2.7534944707     -0.5338117821
C     -2.0939063793     -1.9405978884     -1.6571846271
C     -2.0172376138     -2.3825029337     1.7413203583
C     -2.9853753094     -2.1049897647     0.6522475005
C     -1.3909014974     -1.2669616892     2.4283730682
C     0.8540151182     -2.3467584392     2.0419619891
C     0.0679217949     -1.2181849959     2.5357536984
C     2.6227318168     -2.7014206268     0.2957373621
C     2.2131508824     -2.0944646414     1.538700796
C     2.1255898513     -1.9739784872     -1.8704822742
C     3.0795143654     -1.8374214712     -0.7653889384
C     0.0257050831     -0.9538727824     -2.6538213202
C     1.4701074597     -0.8181024993     -2.3804857882
C     -0.6933341559     0.2244170813     -2.8887124297
C     -2.7263869382     -0.6274095452     -1.7484479868
C     -2.0770150797     0.3626550462     -2.5525897381
C     -3.5657112203     -0.8743351322     0.5749559432
C     -3.545226544     -0.1397973142     -0.6768858652
C     -2.1577498494     -0.0689829804     2.4234315239
C     -3.348578926     0.0518744744     1.6573005444
C     -1.5190441099     1.2481938289     2.4676825176
C     0.7038260789     0.1155889046     2.7209977995
C     -0.114851121     1.364270111     2.6476035167
C     2.8152078482     -0.8435166408     1.8340760662
C     2.0803212626     0.242613383     2.4862189851
C     3.5973921346     -0.6039364834     -0.4681088773
C     3.6827132423     -0.2333134487     0.9000400644
C     2.0816378076     0.5048078149     -2.103603579
C     3.1867358219     0.5761932455     -1.2190001513
C     -0.0497701556     1.5647113823     -2.8148452097
C     1.2814189563     1.7288552335     -2.2996296601
C     -2.2877621339     1.7561867719     -2.3022228601
C     -1.0478268537     2.4859890774     -2.5235526874
C     -3.5186842821     1.2699798653     -0.3063160395
C     -3.3599168892     1.3598965709     1.1033761741
C     -2.2718766905     2.1325630237     1.6451548882
C     -2.8580053287     2.2180862197     -1.1167789187
C     -0.881000421     3.4588201821     -1.4832248688
C     -1.6131651722     3.1431088467     0.8648926485
C     -1.9392019853     3.2296412584     -0.5264607998
C     0.4583460736     2.5895653204     2.2198558172
C     -0.2853901752     3.4692355563     1.2803621797
C     2.6576159502     1.5147598834     2.0358898078
C     3.5568348023     1.2019117268     0.989116561
C     3.3494326496     1.721069851     -0.3273756771
C     1.8526546421     2.6545881902     1.8854313559
C     1.5358289345     2.8998597432     -1.5359152339
C     0.4234468573     3.726051891     -1.0563474742
C     0.6498532981     3.927935343     0.3362849619
C     2.5418725088     2.8534695214     -0.4730364227
C     1.964383153     3.4212231562     0.6860718557


