60

 C     2.5355126256     -3.3230395177     1.3110547217
C     1.8080402108     -3.8550281553     0.2140600783
C     2.0727803781     -3.0792055216     -0.985966992
C     3.1941569098     -2.1743165203     0.8421324847
C     2.9939835769     -2.0432436155     -0.5924886608
C     2.7855670791     -1.039883642     1.6223390833
C     1.4926044714     -2.8343057635     2.2181338044
C     1.6520152939     -1.4417804691     2.455712273
C     0.4430911005     -4.0637079937     0.5897579566
C     0.2226389626     -3.3503880983     1.8758488405
C     -0.5374271831     -4.0019443674     -0.3966682277
C     0.9979787618     -2.7769730801     -1.8982836189
C     -0.2872169503     -3.3396574323     -1.6706741756
C     1.0342887607     -1.5024330407     -2.5429599419
C     2.9616986279     -0.7493775244     -1.1696339961
C     2.0643442646     -0.5568984966     -2.261979909
C     2.8569208452     0.2511761131     1.1094240133
C     3.182630175     0.4121137262     -0.3119695287
C     2.059191809     1.25715622     1.7891975396
C     0.5322462126     -0.5748457303     2.5887028417
C     0.7912422511     0.8569423977     2.4059438411
C     -0.9411949879     -2.5482105902     2.057229887
C     -0.8056504869     -1.1331488689     2.4535080242
C     -1.852852069     -3.674447704     0.0181125121
C     -2.0760819898     -2.9480716548     1.2459749373
C     -1.5009526576     -2.597167794     -1.9807202213
C     -2.5242526669     -3.0003674587     -1.062033057
C     -0.1772093048     -0.7441077416     -2.8205302578
C     -1.4552204441     -1.220022729     -2.4418252788
C     1.5604292276     0.7635528191     -2.6005677781
C     0.1393304171     0.660360635     -2.8477294823
C     2.9674952067     1.6921770565     -0.856189895
C     2.0878790392     1.8801139526     -2.0211750686
C     2.2248461474     2.5902145305     1.3320788626
C     2.7155608498     2.7779376068     -0.0163197353
C     1.2323168307     3.5621100249     1.5664101074
C     -0.3097340236     1.7964957428     2.4032719368
C     -0.0411249318     3.1911615307     2.0609757706
C     -1.8858968957     -0.1932431011     2.1655093435
C     -1.650882491     1.2491753878     2.1628293793
C     -3.0811897323     -2.0074678113     0.9699100234
C     -3.3311070902     -2.006539511     -0.4998973848
C     -3.0070896367     -0.6845842103     1.409685891
C     -2.4054830536     -0.2200109133     -1.9494888459
C     -3.3376240248     -0.6846180756     -0.9389276817
C     -3.4639591939     0.116598909     0.2765387294
C     -0.7515971025     1.6734703203     -2.421904569
C     -2.0601828289     1.2006553023     -1.9512008375
C     1.2626266643     3.060727009     -1.811457439
C     1.8311831192     3.7321817418     -0.6761203102
C     1.0334809642     4.3258340804     0.3035123927
C     -0.1669109827     2.9756193868     -1.9656163681
C     -1.0107387945     3.9569802488     1.2947925703
C     -0.3324430369     4.4401391539     0.0808017732
C     -0.9463707278     3.8069917131     -1.070375727
C     -2.544521246     2.0636883964     1.3760669368
C     -3.2055405231     1.4275221347     0.2470691834
C     -2.7109611647     2.0494707545     -0.9854688469
C     -2.1603491527     3.3279037134     0.8975352284
C     -2.1743155084     3.2705663242     -0.5959471326


