60

 C     2.302576696     3.4174737674     0.1067764474
C     1.106735877     4.016273813     0.5133346711
C     0.2015016415     4.0420589254     -0.6364186244
C     2.1072253175     2.9782805836     -1.271054504
C     0.7794826948     3.2764806761     -1.70443386
C     2.6392603025     1.6955924234     -1.4337277521
C     2.8543882389     2.310944746     0.8151027894
C     3.2150696618     1.2673847771     -0.1664365293
C     2.2331412025     1.8901531124     1.9883491824
C     0.3716950246     3.4970969622     1.6228623021
C     0.9573381305     2.4695252115     2.3837564877
C     -1.1010833495     3.7659356852     -0.1960918446
C     -1.0290281191     3.3543647822     1.2179744842
C     -1.951664225     3.0786406457     -1.0689898108
C     0.0006915364     2.2426942493     -2.3725058952
C     -1.3998838073     2.2825733416     -2.154375007
C     1.9875794406     0.737313514     -2.2817181896
C     0.6200706026     0.9510451867     -2.7079153983
C     2.4876285589     -0.5820780949     -2.1237451409
C     3.2877433882     -0.0930066284     0.1649607716
C     3.1291116514     -1.0067735123     -0.9245519017
C     2.2101955309     0.4710090981     2.3234512665
C     2.8328597505     -0.5216092671     1.5065608004
C     0.1463472882     1.3890414834     2.8831237604
C     0.9722216558     0.1965711247     2.9792117989
C     -1.8393666788     2.2948722334     1.6921257717
C     -1.2380650855     1.2821955164     2.5838567887
C     -2.9960669198     2.31468774     -0.4952195055
C     -2.9303022754     1.870825635     0.8309244729
C     -2.2254534589     1.0820963531     -2.2922359375
C     -3.2630944095     1.1593238102     -1.3443254327
C     -0.2301286453     -0.2427129693     -2.930063669
C     -1.6521828167     -0.1837088981     -2.6229780771
C     1.7405094561     -1.6911322164     -2.6256227356
C     0.3738999881     -1.536995417     -2.9307334989
C     2.764807622     -2.4189685356     -0.7225632241
C     1.967067782     -2.8560488799     -1.8299421657
C     2.3862708713     -1.855983389     1.6685490475
C     2.4288629866     -2.8471047677     0.5588565995
C     0.4172161437     -1.1068401469     2.9806493423
C     1.2310792618     -2.1592610257     2.4557869386
C     -1.7935397096     -0.0421560703     2.6149571255
C     -1.0045319245     -1.2078297489     2.8528603343
C     -3.415345094     0.4756243282     0.8379385396
C     -3.6286535225     0.0543984799     -0.5446775365
C     -2.8913955324     -0.4262909744     1.7309297491
C     -2.2915913562     -1.3464193219     -2.0573065349
C     -3.207854693     -1.2113064468     -0.9563157775
C     -0.2918360671     -2.723414702     -2.3663003483
C     0.7035839072     -3.5050767346     -1.629402046
C     -1.5734448461     -2.5928069198     -1.8765049893
C     1.3347646015     -3.7492284444     0.717730854
C     0.604065834     -3.3105154703     1.8598419993
C     0.3894628734     -3.995152314     -0.3509773851
C     -1.5915541951     -2.3253182692     2.1140008035
C     -2.7109657788     -1.8263499304     1.3611529004
C     -2.8640548165     -2.2263351985     0.0284949435
C     -1.9255183156     -3.1507451186     -0.5720243813
C     -0.7933295497     -3.3523376982     1.597334214
C     -0.9445202266     -3.7709714947     0.1977028163


