60

 C     -1.3376729884     -4.3312790635     -0.0053045812
C     0.0381704147     -4.4195054044     -0.2875543608
C     0.7605080373     -3.9753926504     0.8881454069
C     -1.5141286909     -3.7199740944     1.2556507135
C     -0.2115220082     -3.4268060764     1.8306777749
C     -2.4802794734     -2.6637592175     1.1089806744
C     -1.9470128418     -3.4291384443     -0.9882877847
C     -2.7568176868     -2.4745827844     -0.3334895641
C     0.2863076886     -3.7151118287     -1.536690833
C     -0.9452482853     -3.0246699508     -1.9221920775
C     1.4972447301     -3.0637968188     -1.7126751531
C     1.9730935865     -3.3201020484     0.7057275494
C     2.438374865     -3.0804500318     -0.6316524828
C     2.3080615403     -2.1343772421     1.4997472842
C     0.0247284175     -2.158845307     2.446159058
C     1.3427307929     -1.4922063191     2.3140827773
C     -2.3366366017     -1.5440117065     1.8886356706
C     -1.1172673719     -1.2983605809     2.6322368929
C     -2.8416630153     -0.2710846226     1.4257357392
C     -2.8743882951     -1.1745589422     -0.8663714295
C     -3.2095522428     -0.0797994112     0.064249505
C     -0.9249754573     -1.6776346444     -2.3793180882
C     -2.0517113978     -0.8418449925     -2.0240652574
C     1.5459904592     -1.7176242064     -2.2916033621
C     0.3775000969     -1.0133092714     -2.6248671531
C     3.1515741281     -1.845779783     -0.6477417946
C     3.2135897738     -1.3325316511     0.6899360205
C     2.6705738849     -1.0092171812     -1.6819236947
C     3.2655762194     0.0230506532     0.8458586934
C     1.460676289     -0.030060792     2.5266650599
C     2.5302745667     0.6682724177     1.9034111377
C     -1.003081267     0.1112391717     2.7507308605
C     -2.1487472845     0.7572722072     2.1265222083
C     0.2686220041     0.7755983056     2.8116528392
C     -2.091272302     2.0878420448     1.6346026838
C     -3.1860747999     1.2519177277     -0.4117193868
C     -2.7208753208     2.3686793908     0.3920089868
C     -1.9923627293     0.5216437788     -2.4073815736
C     -2.7650775218     1.490953925     -1.755218938
C     0.4625289044     0.4613182803     -2.7129857925
C     -0.739546022     1.1669989224     -2.8260000907
C     2.6844687439     0.4059372767     -1.5246346432
C     3.2366625706     0.9139894099     -0.3108513813
C     1.6586624995     1.1890325747     -2.2091754431
C     2.4550788925     2.0667286014     1.5686569777
C     2.882849447     2.205034887     0.1620747122
C     0.2569053121     2.1682761802     2.5687042601
C     -0.9350739685     2.8653144959     2.0289396368
C     1.41464741     2.8585906953     2.0371020807
C     -0.5076819881     3.9479253406     1.2587525337
C     0.9513206188     3.9635038249     1.2412507626
C     -2.1132571628     3.3570862179     -0.5110719548
C     -2.0731554466     2.758684263     -1.7977559928
C     -0.8391161729     2.5801894909     -2.4875031411
C     -1.0128923155     4.1365319726     -0.097670066
C     1.5486874013     2.5544969348     -1.873042316
C     2.2154907508     3.0907910833     -0.684259582
C     1.3318915159     4.0524811133     -0.0952020812
C     0.2874364754     3.2816550346     -2.0296743715
C     0.1368624214     4.1847791451     -0.9390141292


