60

 C     0.2608144702     -4.6385760362     -0.4679936701
C     1.4133267134     -3.9115727528     -0.1976588651
C     1.3753555287     -3.3340770164     1.134348276
C     -0.6551990029     -4.3613154856     0.6335004823
C     0.0270349981     -3.5620426595     1.6350112429
C     -1.8251764821     -3.8295056644     0.0846155546
C     -0.3084827122     -4.0062001579     -1.6573716662
C     -1.5990191972     -3.6004338273     -1.3829817517
C     1.7418430353     -3.0031631927     -1.2977740265
C     0.6124488395     -3.0030640637     -2.1828526317
C     2.4997768247     -1.837040353     -1.0542912401
C     2.0903532127     -2.1523507799     1.4147642754
C     2.8437524943     -1.4651712775     0.3333222719
C     1.5655534925     -1.3443232782     2.4679724729
C     -0.6463037054     -2.4982040545     2.3077223179
C     0.1913301084     -1.4765385046     2.8549755733
C     -2.4350558444     -2.6710469895     0.6050598168
C     -1.9614217473     -2.0700092895     1.8171294377
C     -2.0451352958     -2.2768903945     -1.6835471436
C     -2.7328432248     -1.7874947021     -0.5180661729
C     0.132272671     -1.7575167319     -2.6951733153
C     -1.2556821686     -1.3484123918     -2.4451058817
C     2.3141913002     -0.7987356989     -2.0012371557
C     1.1080681961     -0.7313449192     -2.7647952432
C     2.7512260498     0.5533981798     -1.7445046242
C     3.2826535524     -0.1582606125     0.5603725196
C     3.342092782     0.8417212859     -0.5161705027
C     1.9528512905     0.0313270212     2.6326380087
C     2.9060457883     0.5756051793     1.7750917169
C     -0.2842330098     -0.1433409722     3.1584629303
C     0.8017573127     0.8110363092     3.0247923592
C     -2.3574906056     -0.7227849021     2.0227423702
C     -1.5618337954     0.2256712569     2.7747071394
C     -2.9802453893     -0.4176973806     -0.3490424401
C     -3.0038307014     0.0451634951     0.9985548826
C     -1.5873552296     0.0596107368     -2.3683867547
C     -2.6010371669     0.4980744473     -1.422234963
C     0.7533974338     0.6555061279     -2.8896213852
C     1.8258353321     1.4738001641     -2.3465585986
C     -0.5993382381     1.0696731845     -2.8010794609
C     1.554098418     2.7497856873     -1.7742903078
C     3.0909433164     2.1296023892     0.0443723365
C     2.7989949408     1.9505087519     1.4654813386
C     2.2169171067     3.0638206666     -0.5131023624
C     0.5832327086     2.1286927861     2.5296601918
C     1.6655122706     2.7192764247     1.7829165497
C     1.3958811895     3.5627762658     0.6079760163
C     -1.8318842285     1.5798278481     2.3184153969
C     -2.818173937     1.4478597308     1.27536129
C     -0.7978971336     2.5510870894     2.1973269838
C     -2.755830024     1.8857337476     -1.1555163678
C     -2.8862637212     2.3572552979     0.2348768468
C     -0.8095584276     2.4509013417     -2.513538286
C     0.2629535863     3.2927845487     -1.9998358777
C     -2.0196900191     2.8727999223     -1.8703470653
C     0.1400652174     4.0504462198     0.376242884
C     -0.9891899561     3.5942482041     1.2177218366
C     -2.0970685714     3.5469753654     0.3355560553
C     -0.334937821     4.15929548     -1.0055265273
C     -1.7204031247     3.9728489336     -1.0030870875


