60

 C     0.354206038     -4.3904669406     -0.3273592612
C     0.1367030004     -3.8854886845     -1.5844165761
C     -1.244846715     -3.3671587448     -1.6633783113
C     -0.9142755993     -4.1995204613     0.4398028667
C     -1.8612247409     -3.4627702156     -0.3854893744
C     -0.5564555026     -3.706392994     1.6668527893
C     1.4596707935     -3.8893863018     0.472070135
C     0.9095186032     -3.5310876492     1.7397582131
C     2.363155187     -2.9816289356     -0.1151012662
C     1.0057689353     -2.9017486111     -2.1887195216
C     2.1544943361     -2.5093074538     -1.495324267
C     -1.2156780908     -2.1644948486     -2.3748411738
C     0.172919888     -1.8610155624     -2.7381764663
C     -2.1210387241     -1.1218748293     -2.0260427317
C     -2.5657436029     -2.329420256     0.13606422
C     -2.8858011385     -1.2371300253     -0.7901309672
C     -1.1898374125     -2.5483252998     2.2152579668
C     -2.3065211666     -1.9652094704     1.5427583484
C     1.1382656224     -2.2787365687     2.326453302
C     -0.1493302894     -1.6891857264     2.7058821759
C     2.8121179286     -1.8390173984     0.6367365552
C     2.1503624836     -1.4019021431     1.8294920525
C     2.6138909644     -1.1449409721     -1.5961262948
C     3.2122161073     -0.8312583356     -0.3248605152
C     0.6072609815     -0.5123839755     -2.8330455476
C     1.9059350172     -0.1185190372     -2.2881966097
C     -1.7714714005     0.1637381243     -2.5196203051
C     -0.4220361212     0.468336731     -2.8900948479
C     -2.3477626977     1.3723479188     -1.9844044081
C     -3.4035183271     -0.0136568657     -0.2509286145
C     -3.1678103902     1.2908445182     -0.8730791632
C     -2.6122257509     -0.657708333     1.9746025393
C     -3.3674464432     0.1979087056     1.1435011541
C     -0.3184691248     -0.2782269252     2.8263259603
C     -1.6399984607     0.1825024034     2.649402012
C     2.0506107223     0.034832963     2.1229741848
C     0.8174239667     0.6346183207     2.6125474953
C     3.369994519     0.4602785293     0.0537919088
C     2.9490738959     0.8800741845     1.4038356023
C     2.1593225726     1.2892466504     -1.9358405446
C     3.0727445953     1.5325305152     -0.8649762013
C     -0.159417709     1.8704708943     -2.6188596802
C     -1.3832361153     2.4519625458     -2.138134101
C     1.1300786407     2.3252538022     -2.1892745002
C     -1.3325949066     3.4894507174     -1.1941771436
C     -2.984456058     2.2865820143     0.2019556181
C     -3.021349277     1.571323692     1.4226537221
C     -1.9049719926     1.5689481601     2.2967301673
C     -2.0546114915     3.3042079881     0.0821164534
C     0.5471650247     2.0655696185     2.4015738197
C     -0.8495180193     2.5068403834     2.1364842056
C     -1.0906605391     3.5340792949     1.1471132104
C     2.7574464909     2.2481962097     1.3572497485
C     2.9558005125     2.7022389121     -0.0482758891
C     1.5976657763     2.8852045763     1.8708213166
C     1.1350822122     3.5532896984     -1.4145814438
C     -0.0936093107     4.080527803     -0.9276903426
C     0.0182255361     4.2049064219     0.5477330257
C     2.0733980918     3.7018514574     -0.3138239692
C     1.3053986746     3.9597996109     0.9324290696


