60

 C     -0.9211553057     -4.5100596725     -0.6810990485
C     0.3908231141     -4.2891865461     -1.1224748572
C     1.2346528066     -4.2067156747     0.0530734669
C     -0.9555269311     -4.2472264719     0.76363537
C     0.3521778789     -4.1397378296     1.228989453
C     -1.8953135423     -3.1765088398     1.0145794027
C     -1.7845561735     -3.5495979025     -1.2991224867
C     -2.5417678457     -2.8991196903     -0.2711569092
C     0.3543754244     -3.1538322902     -2.0417801133
C     -1.0477272024     -2.7289364451     -2.2033231445
C     1.3413080366     -2.1628013505     -2.0032976138
C     2.1489209422     -3.1805748716     0.1582748443
C     2.3697626516     -2.2773827151     -0.9409860582
C     0.7387123356     -3.0096366118     2.0148909165
C     1.9704366438     -2.5214838685     1.4826534256
C     -1.5966133522     -2.0834685044     1.8936511728
C     -0.2364384019     -2.0290062269     2.4564141328
C     -2.3297315187     -0.8191019286     1.7132359463
C     -3.0093898845     -1.6391936466     -0.5210056257
C     -3.1389038213     -0.6848167073     0.5515121259
C     -1.39323304     -1.3475163016     -2.3644262636
C     -2.5693517671     -0.9061594156     -1.6854362811
C     1.019673555     -0.8032846111     -2.5263106548
C     -0.3615062461     -0.3499954839     -2.6263991671
C     2.0272106859     0.1726448589     -2.4045064528
C     3.1316953783     -1.1396348567     -0.6378407348
C     3.13617428     -0.0627980743     -1.5181600722
C     2.436305064     -1.2094467637     1.7389350522
C     3.2407384532     -0.5836006672     0.7389666426
C     0.2819850225     -0.7731631597     2.8478478564
C     1.6332888803     -0.3837473213     2.5735547832
C     -1.8303241366     0.4399574647     2.3194939293
C     -0.5140288608     0.4323205774     2.8533206085
C     -2.3058322606     1.7032616733     1.8702122487
C     -3.295824779     0.5879510536     -0.067828083
C     -2.8022180381     0.4742462143     -1.4326551072
C     -3.1047876246     1.7588987299     0.654158352
C     -0.6763881534     1.0827160308     -2.5161474659
C     -1.9730747194     1.4856042028     -1.970789398
C     1.7309887774     1.5769088603     -2.3301188771
C     0.415212889     2.0579903804     -2.4318692133
C     3.410991234     1.1422631454     -0.7882036558
C     3.3262509643     0.8224265305     0.6348275229
C     2.6652975694     2.1682614742     -1.3322092256
C     1.6732036528     1.0520396036     2.4510748097
C     0.3596943879     1.5713581199     2.7291725817
C     2.5279379182     1.6845159582     1.494823049
C     -1.4952396607     2.9197232951     1.9112775319
C     -0.0908856484     2.8257805599     2.2200095987
C     -2.7615802128     2.9081503283     -0.0608815901
C     -2.1373244925     2.7955705335     -1.3638175744
C     -1.8995201688     3.7158992956     0.7865203791
C     0.1753214512     3.3906133338     -1.8504718282
C     -1.103298453     3.7543100583     -1.4147815423
C     -0.9710781076     4.3538066271     -0.0360607662
C     2.2161390481     3.2068523102     -0.4878657052
C     2.0732185029     2.9279409346     0.9644289078
C     0.8588261094     3.571524101     1.4130415133
C     1.1293868932     3.9500881627     -0.8966326495
C     0.3719103981     4.3341101307     0.2950828416


