60

 C     -0.4253045362     -4.345752411     0.2635479329
C     0.5379497135     -3.935834818     1.1575594126
C     1.7890053714     -3.6889253016     0.4451978173
C     0.1715390886     -4.1616763416     -1.0852509267
C     1.4895084732     -3.5977232276     -0.9423277855
C     -0.7664658188     -3.4792387213     -1.816036013
C     -1.6946432881     -3.6797337348     0.2832977672
C     -2.0305571815     -3.3857153963     -1.0851618761
C     -1.9777048236     -2.6934577334     1.3046405289
C     0.3638315981     -2.8288863516     2.0809009211
C     -0.8723483189     -2.1555609452     2.1436756086
C     2.5017841501     -2.6858581965     1.1198371677
C     1.601846281     -2.0781287473     2.1085522033
C     3.2909672424     -1.8559567461     0.3383475053
C     1.8454639191     -2.3651578864     -1.6350090989
C     2.9059884986     -1.6399143558     -1.0617835068
C     -0.4976923622     -2.1798682528     -2.4227012975
C     0.7841961797     -1.5847423245     -2.3418759207
C     -2.6103060805     -2.1524243148     -1.4077051448
C     -1.681620716     -1.387670891     -2.2665375445
C     -3.0055702489     -1.7845852018     0.9669577871
C     -3.3238858101     -1.4814378016     -0.4230961511
C     -3.1684708945     -0.5775241097     1.6912545556
C     -0.8480954243     -0.7152024678     2.513220593
C     -2.0712349083     -0.0005092404     2.3827680494
C     1.6385599773     -0.6728353974     2.3368309193
C     0.3901321035     0.0552891645     2.5278892722
C     3.6246196896     -0.5973509208     0.8677323808
C     2.795515221     0.0218213562     1.8233207702
C     3.1013739007     -0.2348969266     -1.3443209947
C     3.7543770354     0.3504636049     -0.2249171799
C     0.8520229432     -0.1276046943     -2.4409707591
C     2.1085791392     0.5313509267     -2.0766577033
C     -1.6467831037     0.0154870104     -2.2335891678
C     -0.367242249     0.6778166008     -2.4706371021
C     -3.4908817067     -0.0619191233     -0.5134716226
C     -3.6783708654     0.4441045643     0.8111180759
C     -2.7199320047     0.7011005518     -1.4834262073
C     -2.0886160123     1.4359645626     2.1449067355
C     -3.1298191925     1.6826956815     1.1673740053
C     0.3715618056     1.5274292795     2.3169358389
C     -0.9019889361     2.2081546564     2.1471189508
C     2.7173857049     1.4426918568     1.4956838196
C     3.3941815522     1.6229570368     0.2191051362
C     1.5771883343     2.2027462384     1.7992029738
C     2.1350500265     1.9253363855     -1.8869719189
C     2.853199906     2.4951752371     -0.7363929559
C     -0.306368565     2.1409669253     -2.3194085297
C     0.9720426028     2.7656312482     -2.1235210753
C     -2.5656070298     2.0622075667     -1.2149810634
C     -2.8769166729     2.5966187268     0.1278774129
C     -1.460421754     2.8279292094     -1.7633012264
C     -0.9702729637     3.471890107     1.3983264731
C     -1.9705892493     3.6103260933     0.3690357211
C     -1.2726584894     3.9414771628     -0.888383614
C     1.4481293424     3.45677861     1.0338068573
C     2.1071332154     3.5601639214     -0.2667737397
C     1.0976515734     3.9059261326     -1.2556557075
C     0.2056082319     4.0775471475     0.9038066638
C     -0.0060239146     4.3780453158     -0.5589641232


