60

 C     0.9083781394     -3.8851172788     0.1513293855
C     2.1779848893     -3.3344074008     0.1918840474
C     2.5016931492     -2.822495062     -1.1254979583
C     0.3754391328     -3.6942420634     -1.2157952354
C     1.3063124274     -2.9208256052     -1.9427503052
C     -0.9815909174     -3.3408031787     -1.1124964604
C     -0.1043567246     -3.510104314     1.0702757172
C     -1.3440489874     -3.4248819679     0.3087422725
C     0.1673845195     -2.5811205531     2.1307194563
C     2.4867962517     -2.340701379     1.1771822042
C     1.5307069997     -2.0319531549     2.1947414917
C     3.1251437231     -1.5819129447     -0.9289809022
C     3.1871549723     -1.2692335799     0.4993174972
C     2.8292461234     -0.5360632593     -1.8128906443
C     0.8342881302     -1.7703091807     -2.6830688093
C     1.7409355826     -0.6655015339     -2.7642235765
C     -1.5377294906     -2.3062391136     -1.9423226491
C     -0.6061836616     -1.496035267     -2.7376436696
C     -2.7531614748     -1.7125930311     -1.4583212014
C     -2.3980506893     -2.6783124938     0.7781100736
C     -3.2294471401     -1.9986032875     -0.1596490109
C     -0.9633577281     -1.7473627042     2.5900272026
C     -2.2114872311     -1.8164185399     1.9365823361
C     -0.6867642189     -0.4952620834     3.2531520985
C     1.7223286019     -0.7499521777     2.8036569169
C     0.635921347     -0.1067297994     3.4460040812
C     3.143216056     0.0789564333     0.9472530871
C     2.5358218469     0.2853396164     2.2102661781
C     2.9677451498     0.8439250992     -1.4203583304
C     3.1315880344     1.1918684042     -0.0401589093
C     1.2986293537     0.6671472717     -3.0410861199
C     2.1172542955     1.6173843926     -2.2933296728
C     -1.0079239407     -0.1539451533     -3.0549403762
C     -0.0543618026     0.9187515779     -3.2223270612
C     -3.0722006719     -0.3046713862     -1.7285286765
C     -2.2221452606     0.4324795207     -2.5333886642
C     -3.6428755481     -0.7525674926     0.4475691742
C     -2.9937153299     -0.6041530086     1.6887988404
C     -3.6100779668     0.291076673     -0.5224129901
C     -1.4269098581     0.7330689756     2.9605441471
C     -2.523977518     0.7120526438     2.0919068529
C     0.7648842551     1.3452907426     3.3208554676
C     1.9323026282     1.5918101225     2.5578322769
C     -0.4841228281     1.8641704841     2.9596078637
C     2.6216059806     2.4667506172     0.362472712
C     1.927025339     2.6250039365     1.6431236682
C     1.5711485342     2.8195285186     -1.8589996279
C     1.9274848951     3.2816979821     -0.5625341724
C     -0.6399939346     2.1598231845     -2.7166325372
C     -1.9733804598     1.8437724306     -2.2416836854
C     0.1404372832     3.0910266445     -2.0497833177
C     -3.203106152     1.578973184     -0.1336535091
C     -2.7032585825     1.8249605493     1.1842801176
C     -2.4498007779     2.4079481645     -1.0607392095
C     -0.5644205795     2.8984662254     1.9626162069
C     0.6902919864     3.3705591218     1.4153366528
C     0.7452833781     3.8286042604     0.0746575053
C     -0.3578219462     3.6964771354     -0.8080245507
C     -1.7047598134     2.8825668605     1.0985931149
C     -1.593401571     3.2830373215     -0.2852169133


