60

 C     -1.9622530378     -3.9442933139     0.3210670622
C     -0.7689224491     -4.1857742721     -0.3645790525
C     0.3445943846     -3.8793392083     0.5178809418
C     -1.61841406     -3.2804100407     1.5655190439
C     -0.2062237138     -3.2975762218     1.7353692621
C     -2.3525053714     -2.0675623995     1.6993838275
C     -2.754123593     -3.0032897868     -0.421597466
C     -3.1626084009     -1.9562876572     0.4751648385
C     -0.8419489902     -3.445375191     -1.6171883025
C     -2.0871474227     -2.6562427174     -1.6279634959
C     0.3006091662     -2.858733672     -2.1052290181
C     1.5611449279     -3.3781433051     -0.0067582432
C     1.582032714     -2.9710938002     -1.3960545875
C     2.3857956382     -2.6347601026     0.9019602519
C     0.4300844717     -2.1958217809     2.3814378506
C     1.8106651512     -2.0338388517     2.1048460464
C     -1.7613423886     -0.9038575461     2.2805652941
C     -0.3808195216     -1.0025836979     2.7350828773
C     -2.3133222087     0.4138701827     1.9094043679
C     -3.3573681917     -0.7098758055     -0.0476531812
C     -3.1507757824     0.4629828996     0.7699716419
C     -2.0920341553     -1.2895449961     -2.0960416871
C     -2.9329294472     -0.3795455138     -1.3959512172
C     0.2594399047     -1.5623597009     -2.7738094751
C     -0.8927056405     -0.7225156882     -2.7243555022
C     2.3852020151     -1.8746107768     -1.8080770455
C     1.5783312958     -1.0228468571     -2.688367865
C     3.3554370023     -1.7292738699     0.4056267833
C     3.3122629422     -1.2665986901     -0.9318232596
C     2.4751324463     -0.7668490387     2.3131259222
C     3.4372159811     -0.5762582568     1.2835020151
C     0.310135206     0.2174744895     2.9624923746
C     1.7391821453     0.3366621303     2.7245778775
C     -1.6039573149     1.6553664783     2.2500459315
C     -0.285820332     1.5056012071     2.7631797626
C     -1.8925653384     2.8744058411     1.5501209715
C     -3.097476071     1.5830613101     -0.1241456313
C     -2.7446830899     1.0392260385     -1.4352199485
C     -2.6353714649     2.8120816394     0.2911792551
C     -0.6912989163     0.7350596798     -2.7588748823
C     -1.7012290458     1.6470774164     -2.1818475395
C     1.760829676     0.346241964     -2.6878180842
C     0.6388483541     1.2220526564     -2.8217987589
C     3.4362632758     0.1924538116     -0.8855874575
C     3.466495575     0.6080115902     0.5214444874
C     2.7206955717     0.9715485573     -1.7729991097
C     1.9804649254     1.6307148287     2.1481686385
C     0.778551979     2.420846351     2.3574738079
C     2.7481845162     1.7762221147     0.9586927521
C     -0.8692694224     3.8726987585     1.3594796863
C     0.511562825     3.5330201252     1.59697263
C     -1.963674458     3.6330202453     -0.6759510458
C     -1.3463991647     2.9870483068     -1.798947543
C     -0.9547568386     4.3533913531     0.0293247043
C     1.0128006254     2.4884729719     -2.2008510801
C     2.2040266704     2.2654817411     -1.4037659255
C     2.2471895162     2.7312316217     -0.050797318
C     1.2667305324     3.6995372816     0.3260801537
C     0.0663059379     3.4116236506     -1.8142179081
C     0.3157304587     4.1687754171     -0.6208693288


