60

 C     -0.819575649     -4.4159729884     -0.3393742065
C     -0.9978578749     -3.79993246     -1.5658993222
C     -2.1268855014     -2.883434956     -1.4842532242
C     -1.8309745712     -3.8542443577     0.5868175656
C     -2.5730152438     -2.8449468116     -0.0930415906
C     -1.163641462     -3.5376738171     1.768314868
C     0.475535709     -4.3990152492     0.3096140172
C     0.2567212612     -3.921901597     1.6377473323
C     1.5859989015     -3.8634644339     -0.4133842654
C     0.0854970559     -3.0988900302     -2.2376081472
C     1.3650578775     -3.1788141174     -1.7171466079
C     -1.8083793994     -1.7125207885     -2.1626073845
C     -0.434215969     -1.8055198826     -2.6776665356
C     -2.3325875863     -0.4605601274     -1.7233497914
C     -2.7517067266     -1.5718422692     0.4915105601
C     -2.9444289143     -0.4368907693     -0.4127173304
C     -1.2345422162     -2.2403918261     2.329174829
C     -2.0930666702     -1.2668450254     1.7682705805
C     1.0382944447     -2.8889812406     2.2068771601
C     0.1530473849     -1.8423994449     2.6898041656
C     2.5218762163     -3.0743105809     0.2811181138
C     2.2415002509     -2.5065874672     1.5596296507
C     2.2025527814     -1.9839942357     -1.7614076919
C     2.9864715362     -1.9825320404     -0.5769434916
C     0.3473927366     -0.6509838903     -2.7377446506
C     1.739173117     -0.739387024     -2.2649106229
C     -1.739173117     0.739387024     -2.2649106229
C     -0.3473927366     0.6509838903     -2.7377446506
C     -2.2025527814     1.9839942357     -1.7614076919
C     -3.1483996624     0.8202142965     0.1785641269
C     -2.9864715362     1.9825320404     -0.5769434916
C     -1.847514265     0.1240131359     2.1419911242
C     -2.6180463289     1.1153187922     1.5276043673
C     0.5317771657     -0.5056555344     2.6910164016
C     -0.5317771657     0.5056555344     2.6910164016
C     2.6180463289     -1.1153187922     1.5276043673
C     3.1483996624     -0.8202142965     0.1785641269
C     1.847514265     -0.1240131359     2.1419911242
C     2.3325875863     0.4605601274     -1.7233497914
C     2.9444289143     0.4368907693     -0.4127173304
C     0.434215969     1.8055198826     -2.6776665356
C     1.8083793994     1.7125207885     -2.1626073845
C     -1.3650578775     3.1788141174     -1.7171466079
C     -0.0854970559     3.0988900302     -2.2376081472
C     -2.5218762163     3.0743105809     0.2811181138
C     -2.2415002509     2.5065874672     1.5596296507
C     -1.5859989015     3.8634644339     -0.4133842654
C     -0.1530473849     1.8423994449     2.6898041656
C     -1.0382944447     2.8889812406     2.2068771601
C     2.0930666702     1.2668450254     1.7682705805
C     2.7517067266     1.5718422692     0.4915105601
C     1.2345422162     2.2403918261     2.329174829
C     2.1268855014     2.883434956     -1.4842532242
C     0.9978578749     3.79993246     -1.5658993222
C     2.5730152438     2.8449468116     -0.0930415906
C     -0.475535709     4.3990152492     0.3096140172
C     -0.2567212612     3.921901597     1.6377473323
C     1.163641462     3.5376738171     1.768314868
C     0.819575649     4.4159729884     -0.3393742065
C     1.8309745712     3.8542443577     0.5868175656


