60

 C     -1.3546459847     -4.228534794     -0.6946253859
C     -0.0688018015     -4.4052132478     -0.0809978624
C     -0.1576695545     -3.8805576309     1.2513487392
C     -2.2230045085     -3.5359681453     0.2354244578
C     -1.4761929593     -3.2429104862     1.4109682619
C     -2.8659554959     -2.4732844976     -0.4632501389
C     -1.198834561     -3.3953048394     -1.8044602949
C     -2.1583004277     -2.3027029045     -1.7345210547
C     0.9401949065     -3.8851730385     -0.9620800315
C     0.2243199488     -3.1306538068     -2.00014251
C     2.0809052144     -3.3260698547     -0.3933916332
C     0.9607942518     -3.251629188     1.802048943
C     2.1497247211     -3.2068696128     1.0358510682
C     0.8477054717     -1.9482533794     2.4997236957
C     -1.5812558725     -1.9429492361     2.0378614878
C     -0.3762680236     -1.2610083312     2.586202727
C     -3.1832266205     -1.3415536681     0.2498763661
C     -2.6190140301     -1.1101043464     1.5622111992
C     -3.2275310153     -0.0690896041     -0.4112684488
C     -1.8092525635     -1.0265731933     -2.1786902639
C     -2.5261884856     0.1421975838     -1.6177910959
C     0.6328971686     -1.8463637296     -2.370891704
C     -0.4227869895     -0.8343980867     -2.6742538049
C     2.6475484124     -2.1075173046     -0.9473613194
C     1.966356073     -1.3586848311     -1.9303287836
C     2.8480846601     -1.987633775     1.3549517112
C     2.0851596203     -1.2237025183     2.2765654551
C     3.2910703323     -1.3821462879     0.1562180758
C     2.1125706797     0.1958969782     2.2212852425
C     -0.3440598341     0.2177630464     2.7321216474
C     0.9223522214     0.9207633412     2.6282158137
C     -2.6133557827     0.312245598     1.7813285931
C     -3.1872233138     0.9406190799     0.61999531
C     -1.5717841277     0.979457468     2.4918486953
C     -2.9031421623     2.2586117754     0.3048731561
C     -2.0685387677     1.5014184342     -1.9166817569
C     -2.3590073015     2.5777524948     -1.0246440749
C     -0.0233489349     0.456083254     -2.9454476709
C     -0.89345554     1.6285523747     -2.7249746717
C     2.2920131551     0.0638438996     -2.0755582348
C     1.3720627691     0.8920312636     -2.7846078676
C     3.3947838031     -0.0041417969     0.1274644999
C     2.98210985     0.7899976593     1.2469386096
C     3.0882297844     0.7250737432     -1.0893999916
C     2.7463446318     2.1200011301     0.7382359833
C     2.8514856081     2.0920368037     -0.7213275774
C     0.9185357951     2.3426040533     2.3624782053
C     1.8194442975     2.9305812806     1.3428532481
C     -1.5238593622     2.4067990796     2.3177697339
C     -2.2812473501     3.0525056187     1.2811495096
C     -0.2612912849     3.0745770499     2.3484214439
C     -1.443637096     3.6856498606     -0.8359961026
C     1.0440408924     3.8965869407     0.5631337716
C     -1.4136762733     3.9923785039     0.5771384065
C     -0.2033570003     4.0568595144     1.2477301934
C     -0.0537895899     2.7376647577     -2.5683355718
C     1.3370913194     2.273644858     -2.5676160746
C     2.0019562736     2.9050528156     -1.4832363845
C     -0.2249299717     3.7135075519     -1.5509477914
C     1.0608507249     3.8262343225     -0.8394060485


