60

 C     -1.1313149861     4.1682364663     0.3149058166
C     0.2152665525     4.1932630924     0.6586633511
C     0.3709198569     3.4124006435     1.8997964228
C     -1.8381329686     3.2935923386     1.2896794552
C     -0.8646955304     2.7563634043     2.1824337728
C     -2.7228954012     2.4505642627     0.5891877463
C     -1.5092639391     3.7600564262     -0.9658855869
C     -2.5959757657     2.7654985542     -0.8119184819
C     -0.5542101804     3.218586922     -1.8653594443
C     1.2143361279     3.7290518129     -0.2479424073
C     0.8442409446     3.1587195262     -1.5254713358
C     1.5571529458     2.6876636513     1.8447236577
C     2.1932115988     3.0295692189     0.5657610865
C     1.6109057576     1.3270780806     2.3459486408
C     -0.8843962677     1.3508935798     2.4976849358
C     0.3783819974     0.6351293526     2.6756285905
C     -2.8770760096     1.0935215573     0.9771828478
C     -2.0567854153     0.6101970011     2.0776699394
C     -3.2599313401     0.1313910323     -0.0577448751
C     -2.4490580438     1.7484217307     -1.7400042442
C     -1.2036491565     2.0378401329     -2.4621998641
C     -2.8314887782     0.3977995672     -1.4213923541
C     -0.4726476213     0.9934221901     -2.9418075946
C     1.6377044141     1.9989709743     -2.0305902427
C     0.9668279133     0.9660485466     -2.7992323487
C     3.0358299502     2.1106676536     -0.0046956243
C     2.7963799727     1.5886133264     -1.348207223
C     2.7355545744     0.5622239625     1.9044740785
C     3.479292173     1.0250257252     0.796845202
C     2.7045838011     -0.896418043     1.823190363
C     0.3830532756     -0.8458207537     2.6937466956
C     1.5716278577     -1.6095575425     2.2458817474
C     -2.0650566719     -0.7866162287     2.3367805401
C     -0.8500153816     -1.5116493039     2.6705055309
C     -3.4098863037     -1.2224265845     0.3405819126
C     -2.9291310121     -1.6353914818     1.6318382389
C     -3.0888833693     -2.2826118186     -0.5482743313
C     -2.1943686846     -0.6767543207     -2.1672679327
C     -0.9881158686     -0.3666356619     -2.8837589133
C     -2.3221663486     -2.0210114983     -1.7032862123
C     1.3375487192     -0.3988427435     -2.7572059219
C     0.1238102519     -1.231312279     -2.8477005273
C     3.233814011     0.1835168102     -1.3429520583
C     3.7651899268     -0.1034215933     -0.0607062672
C     3.4317962524     -1.2904729718     0.6171848773
C     2.4826591842     -0.842259891     -2.0224944313
C     2.9673830366     -2.3791844925     -0.1338193525
C     2.4393629428     -2.1495173586     -1.4552437233
C     1.3767514941     -2.9289918872     1.6535920055
C     2.1034679845     -3.2935982112     0.51159199
C     -1.0236575037     -2.8847302155     2.1498336023
C     -2.317672465     -2.9511630068     1.5287972339
C     -2.4268878366     -3.3573158569     0.1963793809
C     0.0415118132     -3.5291833986     1.545892434
C     -1.1982848416     -2.964576737     -1.7427387443
C     0.0557336634     -2.5363502273     -2.2476218717
C     1.2584182898     -3.0331281312     -1.6176225456
C     1.1421352415     -3.8129359765     -0.4609095789
C     -1.2838145543     -3.7913758283     -0.5357201897
C     -0.1053903796     -4.051073299     0.1833921327


