60

 C     1.0351645335     -4.2495989403     -0.5195028498
C     0.6325045482     -3.6969979546     -1.7460293533
C     -0.8186828999     -3.5714230768     -1.7765522801
C     -0.1657627369     -4.292043268     0.3440993702
C     -1.2898127972     -3.9018359684     -0.4466710498
C     0.1501459114     -3.5884127535     1.5420058675
C     2.0812228428     -3.6488321515     0.1813636602
C     1.5564244327     -3.3027967725     1.507489448
C     2.7575730567     -2.5004016964     -0.3241289655
C     1.2308288929     -2.4903265404     -2.2448430464
C     2.3314921103     -1.8738716279     -1.5535091227
C     -1.127745342     -2.314470022     -2.3168905852
C     0.1426080369     -1.6710825721     -2.7015245312
C     -2.1938032985     -1.4989787949     -1.8012715768
C     -2.2681711994     -3.1060622355     0.1350388998
C     -2.8673606236     -2.0140087109     -0.6345971076
C     -0.7486808989     -2.5863021855     2.0820240073
C     -2.0563654333     -2.5670847029     1.4720025392
C     -0.2165594132     -1.3406444811     2.6405332622
C     2.0453980474     -2.0598714089     1.8944669067
C     2.9499789175     -1.629010226     0.8159075075
C     1.2157412941     -1.0742182946     2.5296166259
C     3.2107165068     -0.302375595     0.643706961
C     2.4766514437     -0.4280265843     -1.7007030637
C     3.1478506421     0.2997998891     -0.6585574339
C     0.233689495     -0.2842177512     -2.8251107639
C     1.5174911844     0.3289339228     -2.4806122992
C     -2.1576507257     -0.0642155931     -2.0298394986
C     -1.0095152596     0.5010707985     -2.7400354542
C     -2.8794534978     0.8220553776     -1.1132234216
C     -3.4390259456     -1.1048906553     0.2827666067
C     -2.8639312706     -1.413996162     1.5805229373
C     -3.3777845691     0.2768559488     0.1026044627
C     -1.1178313711     -0.170378027     2.7834767626
C     -2.433345105     -0.2301337387     2.1891054245
C     -2.8966940158     0.8640424688     1.3575932149
C     -0.5894634577     1.1169583862     2.9519667556
C     1.7168232684     0.3021499732     2.5398596746
C     2.7625201997     0.6725795572     1.6280237377
C     0.836916358     1.3547119462     2.9222825848
C     2.9746183267     1.7086999227     -0.438350212
C     2.7966916531     1.9547126102     0.9967055012
C     1.559140638     1.7625063031     -2.4110485412
C     2.2804507219     2.4743730632     -1.3517020197
C     -0.8807732548     1.9061224955     -2.8083046642
C     0.4145991051     2.4995238658     -2.7224896768
C     -2.5518169287     2.2153054484     -1.0595096559
C     -1.7368587027     2.7649254682     -2.0254954081
C     -2.3001976554     2.1420770039     1.4304282239
C     -1.2491195023     2.3134212892     2.3976090631
C     -2.2635905065     2.9121253491     0.2315703797
C     1.0403619465     2.6800565841     2.4681005175
C     1.934399543     2.9795849     1.420059536
C     -0.2527331956     3.272463763     2.1471902944
C     1.4675465271     3.6126666402     -0.9163369269
C     0.3589891443     3.6869413813     -1.835680252
C     -0.9346239275     3.8411488524     -1.4056741459
C     -1.2393815852     3.8917267478     0.0020012901
C     1.2264851629     3.8269019725     0.4436697686
C     -0.1582894718     3.9920664621     0.9244018148


