60

 C     -0.5687340015     3.9876475618     0.6839437119
C     -0.5687340015     3.9876475618     -0.6839437119
C     0.8363971608     3.8590558882     -1.1537741588
C     0.8363971608     3.8590558882     1.1537741588
C     1.6628889115     3.6479255009     0.
C     0.8411141857     2.9898893353     2.2371378405
C     -1.3821074064     3.077423419     1.4155461633
C     -0.573754603     2.6585902021     2.5365241467
C     -2.2090080692     2.1141665059     0.7325784086
C     -1.3821074064     3.077423419     -1.4155461633
C     -2.2090080692     2.1141665059     -0.7325784086
C     0.8411141857     2.9898893353     -2.2371378405
C     -0.573754603     2.6585902021     -2.5365241467
C     1.8184418963     1.9090167414     -2.2980960568
C     2.5400133556     2.5321304422     0.
C     2.6163969216     1.6807243301     -1.1560683366
C     1.8184418963     1.9090167414     2.2980960568
C     2.6163969216     1.6807243301     1.1560683366
C     1.4820653642     0.755862393     3.0836303653
C     -0.8655957627     1.4984601763     3.2040359377
C     0.2161533375     0.6799529123     3.6967731169
C     -2.4903679228     0.8584530563     1.450217857
C     -1.8875723271     0.606652181     2.7085784987
C     -2.8857257004     -0.3017004811     0.7009560309
C     -2.4903679228     0.8584530563     -1.450217857
C     -2.8857257004     -0.3017004811     -0.7009560309
C     -0.8655957627     1.4984601763     -3.2040359377
C     -1.8875723271     0.606652181     -2.7085784987
C     1.4820653642     0.755862393     -3.0836303653
C     0.2161533375     0.6799529123     -3.6967731169
C     1.8875723271     -0.606652181     -2.7085784987
C     2.8857257004     0.3017004811     -0.7009560309
C     2.8857257004     0.3017004811     0.7009560309
C     2.4903679228     -0.8584530563     -1.450217857
C     1.8875723271     -0.606652181     2.7085784987
C     2.4903679228     -0.8584530563     1.450217857
C     -0.2161533375     -0.6799529123     3.6967731169
C     -1.4820653642     -0.755862393     3.0836303653
C     0.8655957627     -1.4984601763     3.2040359377
C     -2.6163969216     -1.6807243301     1.1560683366
C     -1.8184418963     -1.9090167414     2.2980960568
C     -2.6163969216     -1.6807243301     -1.1560683366
C     -2.5400133556     -2.5321304422     0.
C     -1.4820653642     -0.755862393     -3.0836303653
C     -0.2161533375     -0.6799529123     -3.6967731169
C     0.8655957627     -1.4984601763     -3.2040359377
C     -1.8184418963     -1.9090167414     -2.2980960568
C     0.573754603     -2.6585902021     -2.5365241467
C     -0.8411141857     -2.9898893353     -2.2371378405
C     2.2090080692     -2.1141665059     -0.7325784086
C     2.2090080692     -2.1141665059     0.7325784086
C     1.3821074064     -3.077423419     -1.4155461633
C     0.573754603     -2.6585902021     2.5365241467
C     -0.8411141857     -2.9898893353     2.2371378405
C     1.3821074064     -3.077423419     1.4155461633
C     -1.6628889115     -3.6479255009     0.
C     -0.8363971608     -3.8590558882     -1.1537741588
C     0.5687340015     -3.9876475618     -0.6839437119
C     -0.8363971608     -3.8590558882     1.1537741588
C     0.5687340015     -3.9876475618     0.6839437119


