60

 C     1.0369010541     -4.3595385679     0.2962759928
C     -0.2935937791     -4.3320923871     0.7619307491
C     -1.1161789006     -3.9609468246     -0.3628848147
C     1.0973648748     -3.953952047     -1.0955221245
C     -0.2279511508     -3.6503853405     -1.5196825484
C     2.131281298     -2.9885016628     -1.2130982787
C     1.8511265449     -3.4918167337     1.0646034848
C     2.585457426     -2.6568225445     0.1656348259
C     -0.3180500467     -3.5085363439     1.9622427953
C     1.010252469     -2.9032545017     2.0899769234
C     -1.4282697502     -2.7080644141     2.1833825585
C     -2.2327672328     -3.1635873077     -0.1329149638
C     -2.4863077587     -2.7114155815     1.1987786791
C     -2.5813172615     -2.0602681167     -1.0416898059
C     -0.4758242022     -2.488247164     -2.3162576902
C     -1.7277506732     -1.7167011475     -2.1195371887
C     1.9467185415     -1.9441084382     -2.1052879193
C     0.6733536752     -1.7404576998     -2.7414421753
C     2.5353930057     -0.6461162231     -1.8528517516
C     2.8581583491     -1.3297606181     0.5105684856
C     3.0780370854     -0.3526257429     -0.5750845888
C     1.1603069836     -1.5383888717     2.3916760408
C     2.272842244     -0.8233972051     1.7659389401
C     -1.2851561059     -1.3334505812     2.6310542275
C     -0.0271654661     -0.7346516829     2.7611393824
C     -3.0406125969     -1.4067970569     1.1206394018
C     -3.1815813733     -1.014642932     -0.2483724664
C     -2.3780772043     -0.5449096284     2.0307040644
C     -3.0780370854     0.3526257429     -0.5750845888
C     -1.7765068052     -0.3508104141     -2.5472635956
C     -2.5353930057     0.6461162231     -1.8528517516
C     0.6059014169     -0.3320316573     -3.0626567395
C     1.7765068052     0.3508104141     -2.5472635956
C     -0.6059014169     0.3320316573     -3.0626567395
C     1.7277506732     1.7167011475     -2.1195371887
C     3.1815813733     1.014642932     -0.2483724664
C     2.5813172615     2.0602681167     -1.0416898059
C     2.3780772043     0.5449096284     2.0307040644
C     3.0406125969     1.4067970569     1.1206394018
C     0.0271654661     0.7346516829     2.7611393824
C     1.2851561059     1.3334505812     2.6310542275
C     -2.272842244     0.8233972051     1.7659389401
C     -2.8581583491     1.3297606181     0.5105684856
C     -1.1603069836     1.5383888717     2.3916760408
C     -2.585457426     2.6568225445     0.1656348259
C     -1.9467185415     1.9441084382     -2.1052879193
C     -0.6733536752     1.7404576998     -2.7414421753
C     0.4758242022     2.488247164     -2.3162576902
C     -2.131281298     2.9885016628     -1.2130982787
C     0.2279511508     3.6503853405     -1.5196825484
C     -1.0973648748     3.953952047     -1.0955221245
C     2.2327672328     3.1635873077     -0.1329149638
C     2.4863077587     2.7114155815     1.1987786791
C     1.4282697502     2.7080644141     2.1833825585
C     1.1161789006     3.9609468246     -0.3628848147
C     -1.010252469     2.9032545017     2.0899769234
C     -1.8511265449     3.4918167337     1.0646034848
C     -1.0369010541     4.3595385679     0.2962759928
C     0.3180500467     3.5085363439     1.9622427953
C     0.2935937791     4.3320923871     0.7619307491


