60

 C     -3.7730038084     0.4076357778     1.998886627
C     -4.1314897125     -0.5751245112     1.132544032
C     -4.3594971664     0.0388711641     -0.2080964877
C     -3.6958767095     1.6854669183     1.2208109879
C     -3.8383491389     1.3871489694     -0.1747844455
C     -2.5923117574     2.3462494387     1.6870873276
C     -2.5681074229     0.2891280448     2.7953623837
C     -1.9596708737     1.5657502035     2.773499841
C     -1.7023244857     -0.8550485872     2.6389816038
C     -3.2897940678     -1.7515727214     0.9403668842
C     -2.0480106606     -1.8732520618     1.6381370455
C     -3.9299210245     -0.8667244475     -1.1402466287
C     -3.30652092     -2.0144760989     -0.4457298734
C     -3.080309737     -0.4832902588     -2.2123115877
C     -2.7896913026     1.7560091271     -1.0980664791
C     -2.5467702296     0.8591344073     -2.2347744999
C     -1.5504985949     2.7776652198     0.8125518359
C     -1.6239001278     2.5140714649     -0.580238716
C     -0.5764132902     1.7400559717     2.6833544512
C     -0.3008721226     2.5706207996     1.5309684429
C     -0.3048258369     -0.6626284643     2.9712275687
C     0.3048258369     0.6626284643     2.9712275687
C     0.5764132902     -1.7400559717     2.6833544512
C     -0.948249629     -2.5297339805     0.9103778439
C     0.3008721226     -2.5706207996     1.5309684429
C     -2.164548383     -2.3839392531     -1.1940291443
C     -2.1620083328     -1.5915111874     -2.4141086629
C     -0.9402713811     -2.6790830026     -0.5390466302
C     -0.9760562138     -1.402266905     -3.0800304055
C     -1.3414304559     1.0191922788     -2.9800330873
C     -0.7083317242     -0.0965387251     -3.5874370842
C     -0.3335810944     2.5239823448     -1.2848884464
C     -0.2726100589     1.927827565     -2.5603346967
C     0.948249629     2.5297339805     0.9103778439
C     0.9402713811     2.6790830026     -0.5390466302
C     1.7023244857     0.8550485872     2.6389816038
C     2.0480106606     1.8732520618     1.6381370455
C     1.9596708737     -1.5657502035     2.773499841
C     2.5681074229     -0.2891280448     2.7953623837
C     1.5504985949     -2.7776652198     0.8125518359
C     2.5923117574     -2.3462494387     1.6870873276
C     0.3335810944     -2.5239823448     -1.2848884464
C     0.2726100589     -1.927827565     -2.5603346967
C     1.6239001278     -2.5140714649     -0.580238716
C     0.7083317242     0.0965387251     -3.5874370842
C     0.9760562138     1.402266905     -3.0800304055
C     1.3414304559     -1.0191922788     -2.9800330873
C     2.164548383     2.3839392531     -1.1940291443
C     2.1620083328     1.5915111874     -2.4141086629
C     3.2897940678     1.7515727214     0.9403668842
C     3.30652092     2.0144760989     -0.4457298734
C     3.7730038084     -0.4076357778     1.998886627
C     3.6958767095     -1.6854669183     1.2208109879
C     4.1314897125     0.5751245112     1.132544032
C     2.7896913026     -1.7560091271     -1.0980664791
C     2.5467702296     -0.8591344073     -2.2347744999
C     3.080309737     0.4832902588     -2.2123115877
C     3.9299210245     0.8667244475     -1.1402466287
C     3.8383491389     -1.3871489694     -0.1747844455
C     4.3594971664     -0.0388711641     -0.2080964877


