60

 C     -0.80179405     -5.256518774     0.151229632
C     0.5161298174     -5.4553415006     -0.157974598
C     1.3192544643     -4.9970804204     0.9858660945
C     -0.9227363364     -4.540308077     1.4582922435
C     0.38076585     -4.361842885     1.9536520373
C     -1.7738615817     -3.418337996     1.2493308846
C     -1.4691434794     -4.4401947439     -0.8619984071
C     -2.2037922045     -3.4592265977     -0.1743392233
C     0.7695510404     -4.5651295709     -1.3216685667
C     -0.4785624139     -3.9868407578     -1.8174637577
C     2.0610965445     -3.9306751262     0.510269224
C     1.7606321146     -3.6623808577     -0.931315744
C     0.8027786033     -3.0093463284     2.2334283104
C     1.9696096535     -2.7764635014     1.4053247335
C     -1.4614119479     -2.1300512976     1.7898030318
C     -0.1166936342     -1.9212623979     2.3090013823
C     -2.1161645377     -0.9598039441     1.2187775254
C     -2.4545941928     -2.249890771     -0.8260560055
C     -2.6890320221     -1.0665011639     -0.0690188871
C     -0.5030459539     -2.6270017057     -2.2654482077
C     -1.6814838468     -1.8669585054     -1.9797965264
C     1.7768605569     -2.3084901518     -1.3853503874
C     0.7157887044     -1.8008855635     -2.232072654
C     2.2788972325     -1.5185057156     0.9342131661
C     2.437235558     -1.3497783641     -0.5232923474
C     0.4426354163     -0.5763759886     2.2309020709
C     1.7195299682     -0.3726767381     1.6314036137
C     -1.7195299682     0.3726767381     1.6314036137
C     -0.4426354163     0.5763759886     2.2309020709
C     -2.2788972325     1.5185057156     0.9342131661
C     -2.5189258365     0.0561975358     -0.9693257842
C     -1.7298159069     -0.4283984336     -2.0690051771
C     -2.437235558     1.3497783641     -0.5232923474
C     0.6404672097     -0.3644244039     -2.4773677761
C     -0.6404672097     0.3644244039     -2.4773677761
C     2.5189258365     -0.0561975358     -0.9693257842
C     1.7298159069     0.4283984336     -2.0690051771
C     2.1161645377     0.9598039441     1.2187775254
C     2.6890320221     1.0665011639     -0.0690188871
C     0.1166936342     1.9212623979     2.3090013823
C     1.4614119479     2.1300512976     1.7898030318
C     -1.9696096535     2.7764635014     1.4053247335
C     -0.8027786033     3.0093463284     2.2334283104
C     -2.0610965445     3.9306751262     0.510269224
C     -1.7768605569     2.3084901518     -1.3853503874
C     -0.7157887044     1.8008855635     -2.232072654
C     -1.7606321146     3.6623808577     -0.931315744
C     1.6814838468     1.8669585054     -1.9797965264
C     2.4545941928     2.249890771     -0.8260560055
C     0.5030459539     2.6270017057     -2.2654482077
C     1.7738615817     3.418337996     1.2493308846
C     2.2037922045     3.4592265977     -0.1743392233
C     -0.38076585     4.361842885     1.9536520373
C     -1.3192544643     4.9970804204     0.9858660945
C     0.9227363364     4.540308077     1.4582922435
C     -0.7695510404     4.5651295709     -1.3216685667
C     0.4785624139     3.9868407578     -1.8174637577
C     1.4691434794     4.4401947439     -0.8619984071
C     -0.5161298174     5.4553415006     -0.157974598
C     0.80179405     5.256518774     0.151229632


