60

 C     -1.8728573865     -3.9736645328     0.3405339204
C     -0.5641384807     -4.1298466656     -0.2322070548
C     0.4074550234     -3.7517405599     0.7030587026
C     -1.706405964     -3.2707408979     1.6023706161
C     -0.3370614994     -3.084943622     1.8140835753
C     -2.4879439868     -2.0534082848     1.5637429615
C     -2.5287662093     -3.0598759868     -0.4940820963
C     -3.1043299735     -1.9890883488     0.2641585177
C     -0.5097931944     -3.4784117036     -1.544645336
C     -1.7322371663     -2.7232697986     -1.6822884875
C     0.6882341188     -2.9166408419     -1.9545192469
C     1.6707415559     -3.2463355002     0.2778628597
C     1.8678239404     -2.9588893822     -1.1109406845
C     2.3605604316     -2.4340969039     1.2314340178
C     0.1967418102     -1.8571468251     2.3909324557
C     1.5791062132     -1.6827786209     2.2338112924
C     -2.0460924311     -0.8315979146     2.1752938865
C     -0.6545084762     -0.6810987899     2.6011477176
C     -2.7721315443     0.3041881586     1.7718785739
C     -3.3863733741     -0.76048137     -0.3552834136
C     -3.5830185437     0.3050209606     0.5774697174
C     -1.7462913221     -1.395159766     -2.1713237837
C     -2.7616499503     -0.4609576421     -1.6490191374
C     0.6767033695     -1.6411242756     -2.6391079034
C     -0.491126019     -0.8455652634     -2.7185886361
C     2.7113756224     -1.8451080893     -1.4952514579
C     1.9832482125     -1.0406901035     -2.4471992645
C     3.3753526778     -1.5727963276     0.8164071359
C     3.5259024287     -1.1954292788     -0.5504421355
C     2.1922836712     -0.3867651465     2.4329638352
C     3.3506541885     -0.3530007625     1.6206387756
C     -0.0599482446     0.6537876221     2.6996292002
C     1.3960862187     0.784040124     2.6224898786
C     -2.2498713351     1.6539572737     1.9822005398
C     -0.8781389357     1.8344584585     2.3946838452
C     -3.6096786786     1.6403206505     0.1245069579
C     -2.8582372552     2.5117986354     1.0564829017
C     -2.6285177587     0.9098666999     -1.9825789489
C     -3.1976462133     1.9375701449     -1.1559849626
C     -0.3028129007     0.610719436     -2.8006095377
C     -1.3796335995     1.448254611     -2.4750416997
C     2.1513230761     0.3424890658     -2.4848954546
C     1.0137648105     1.182652012     -2.6692951136
C     3.7020306167     0.2625039983     -0.5839883055
C     3.6438552062     0.7570797727     0.8038021166
C     3.057211006     1.0054147641     -1.5605296226
C     1.9804065131     2.0070374888     2.1256066271
C     3.021360654     1.962857721     1.1035963488
C     -0.2602285157     3.0410309982     1.9231694878
C     1.1521993635     3.1096765921     1.8225317924
C     -2.0736295159     3.434831702     0.2945331606
C     -2.2684050455     3.0873597332     -1.0933223495
C     -1.1644804097     2.788386505     -1.8841440353
C     -0.7953803277     3.7302888216     0.7488603369
C     1.2480903391     2.4491160038     -1.9904805529
C     2.4906351088     2.3184808949     -1.2602960881
C     2.5903958602     2.8579333796     0.0314195121
C     1.5085769554     3.6325294152     0.5297235917
C     0.1639578439     3.221514319     -1.495244451
C     0.3052575215     3.835487242     -0.1997151988


