60

 C     -1.9006768169     -3.8089191785     0.3511015892
C     -2.7048628774     -2.9979978774     -0.4154158609
C     -3.2192245699     -1.9257316257     0.4619236666
C     -1.7386456012     -3.1399600048     1.6891602007
C     -2.5254794117     -1.9438335123     1.7080466654
C     -0.3715149405     -3.1126135052     1.9728784209
C     -0.6382665882     -4.1865942286     -0.1180057515
C     0.3067784464     -3.871885984     0.9297700477
C     -0.1180018398     -3.6201012206     -1.3361230423
C     -2.2055756582     -2.3580123399     -1.6026066455
C     -0.8599180544     -2.6220236216     -2.0668429301
C     -3.3099632119     -0.7517651723     -0.2563177934
C     -2.687756996     -1.006492092     -1.5666148947
C     -3.1327637691     0.4954379916     0.4012444862
C     -1.9979321166     -0.7271228928     2.2450993079
C     -2.4646482814     0.5397713918     1.6850019064
C     0.2350388728     -1.9211358451     2.5122312589
C     -0.6553712461     -0.7955720394     2.8226025419
C     1.6336536133     -1.6716047401     2.1824310213
C     1.5037649412     -3.4035887582     0.3717469084
C     1.2877371482     -3.372972083     -1.0763628667
C     2.2449300007     -2.3649431164     1.0243022464
C     1.9877743845     -2.4674348784     -1.8400084818
C     -0.1307110584     -1.4987933205     -2.7161243698
C     1.2814764361     -1.5381982486     -2.7215928663
C     -2.0722996643     0.0635819766     -2.2559220648
C     -0.7684599738     -0.1694664035     -2.8729276849
C     -3.0263331695     1.5965830483     -0.4970872743
C     -2.4526952487     1.365510919     -1.832195504
C     -2.6596914522     2.8670702142     -0.0568099265
C     -1.8072251586     1.8127126431     2.0519393805
C     -1.9722479364     2.9870698054     1.2178834828
C     -0.0502328484     0.4355806656     3.174348042
C     -0.6167839613     1.7335069719     2.8088301905
C     2.1719822074     -0.4050122525     2.5253249711
C     1.3479478382     0.5502859141     3.1371616805
C     3.0230540313     0.3632245313     1.604815803
C     3.1433607966     -1.6257526845     0.2012348024
C     3.0363366911     -1.7422765411     -1.2093277588
C     3.4500344753     -0.2150352656     0.4507055639
C     2.0762381533     -0.3148538987     -2.7482914708
C     3.1455346695     -0.4351849854     -1.8104927178
C     3.3642750139     0.532715919     -0.8150304754
C     0.0433877279     0.9847877691     -3.0350403671
C     1.4631290184     0.9145508627     -2.8516166599
C     -1.660585094     2.5378290822     -2.1287230107
C     -1.8625534146     3.5025084421     -1.0774505026
C     -0.3722845214     2.3108214575     -2.6062265526
C     -0.8798004259     3.875150357     0.9948689992
C     -0.7610930771     4.0846216256     -0.4412390559
C     0.4949690816     2.6529658555     2.5557699971
C     1.6801964606     1.8935145061     2.6573399876
C     2.6078574474     1.7799851726     1.6194514041
C     0.4062205114     3.5706406225     1.5022350989
C     2.7186647089     1.8168696587     -0.8759068143
C     1.8690709852     2.0350861635     -2.0052016355
C     0.7780709803     2.962240346     -1.9603638166
C     0.5814499798     3.7668009736     -0.829301242
C     2.3898577454     2.5069992721     0.3822559759
C     1.3508066169     3.476454158     0.3834644899


