60

 C     0.1979544713     -4.1762945829     0.4076821254
C     0.6740719797     -3.7077557563     1.6248772392
C     2.0005164649     -3.1306678523     1.4250919529
C     1.1951717628     -3.8447235409     -0.626601561
C     2.3105376907     -3.2230300029     0.0139374595
C     0.5253216924     -3.2280965282     -1.6990119819
C     -1.1002955984     -3.8186040586     -0.0728384632
C     -0.9177923247     -3.3144990244     -1.4337472934
C     -1.9703153658     -3.1261008292     0.7850889578
C     -0.1127217437     -2.7806812886     2.3974935011
C     -1.4449281895     -2.5590309395     2.0336512404
C     2.0322304188     -1.8838154278     2.058838226
C     0.7220814828     -1.6453422803     2.7027354829
C     2.750040808     -0.7779819731     1.4911466786
C     2.8771130011     -2.1138890853     -0.6059920565
C     3.2841508418     -0.9687985277     0.181612893
C     1.0736773543     -2.0495241163     -2.3374073553
C     2.3354875347     -1.6034518966     -1.8532946393
C     0.15287459     -1.0375086925     -2.8886342883
C     -1.7576596965     -2.3361404521     -1.921186286
C     -1.2467416572     -1.21176923     -2.6998316534
C     -2.9039798167     -2.1746239269     0.2421424963
C     -2.8580532616     -1.8409081017     -1.1159494055
C     -2.017191272     -1.2577464485     2.2203776679
C     -3.0603793164     -1.0884571614     1.2077399342
C     0.207371122     -0.3427034426     2.8186240243
C     -1.2397790013     -0.1449285741     2.6346740902
C     2.4155074134     0.5664232307     1.9362162965
C     1.1362864115     0.7863961004     2.6406782734
C     2.9650407476     1.646884177     1.1780767665
C     3.395141335     0.1556190097     -0.7119698067
C     2.7245162073     -0.2126796822     -1.9544143006
C     3.3090482332     1.4318169041     -0.2208055554
C     0.6032770531     0.3137217822     -3.0311736198
C     1.9225923276     0.7144313629     -2.5957429577
C     -0.2617903393     1.4353966002     -2.839174252
C     -2.1278761375     -0.0898342917     -2.5070144171
C     -3.1419144401     -0.4880508614     -1.5453464878
C     -1.6370120926     1.2592194493     -2.5393133879
C     -3.4714431683     0.1537705376     0.8061385519
C     -3.6069903106     0.4460230734     -0.623187337
C     -1.7507723593     1.1958697706     2.3195780336
C     -2.9012049502     1.3376687118     1.4472764123
C     0.5725823775     2.0844159605     2.6266961759
C     -0.8516561111     2.2757430507     2.359983766
C     2.3864080892     2.938781587     1.2402479536
C     1.2518795762     3.168489506     1.9849402393
C     2.6414122904     2.4903487648     -1.0116815223
C     1.8634708686     2.0890468296     -2.1307677031
C     0.5139577449     2.5304536865     -2.2454058814
C     2.1485232447     3.4538284174     -0.1301001316
C     -0.9818697967     3.4173084751     1.4301753491
C     0.2932145     3.897882351     1.1482245116
C     -0.0667730211     3.433832371     -1.2758084976
C     0.7967725562     3.9127934532     -0.2011158382
C     -2.2571634394     2.2403194698     -1.6808240618
C     -3.2466778251     1.8110169566     -0.7836986599
C     -2.9700345606     2.4023569967     0.5232345556
C     -1.446468856     3.2551271714     -0.988067596
C     -1.9287477398     3.3326533189     0.3829259428


