60

 C     4.6471269566     0.3672254911     1.0685292195
C     4.4584401619     1.2384471437     -0.0945517109
C     4.3427069917     0.4294769127     -1.2484724845
C     4.5236177182     -0.9843450631     0.6489938471
C     4.3436836161     -0.9521847742     -0.7697069743
C     3.4610232327     -1.5858923964     1.4379518037
C     3.5804171944     0.6471487675     1.9613123694
C     2.8367927629     -0.5488179773     2.2588375967
C     3.4365180639     2.189075187     0.2033879298
C     2.8624394531     1.8132030586     1.5377564526
C     2.543560488     2.5276021797     -0.8103094897
C     3.2127579738     0.5733331148     -2.1229516252
C     2.4069816309     1.7067057048     -2.0040327483
C     3.2679968595     -1.6386989698     -1.4105902641
C     2.5313455299     -0.7084564087     -2.2679507956
C     2.6035420665     -2.4884842813     0.8320343202
C     2.5223781258     -2.5453630412     -0.6567051225
C     1.2770878283     -2.6392129307     1.3167716853
C     1.4237570964     -0.4923466458     2.4539715341
C     0.6276203466     -1.6702829766     2.1456602948
C     1.4945742067     1.9149168571     1.7827581317
C     0.7367572987     0.7879940929     2.3865585641
C     1.2323474573     2.9746830305     -0.4516553115
C     0.7550793146     2.805373319     0.883548263
C     0.9964277437     1.6442421507     -2.3053547352
C     0.325249153     2.6443516743     -1.5035793338
C     1.1181101861     -0.8013833076     -2.4320359012
C     0.3121945139     0.4279382097     -2.5494744167
C     1.1808121269     -2.8060784     -1.0124625129
C     0.5121367629     -3.1906823908     0.2156775381
C     0.4394866912     -1.9865424438     -1.9220403474
C     -0.8189019164     -3.250208338     0.2745271602
C     -0.8354048159     -1.6225331006     2.148997872
C     -1.5228181416     -2.6664107914     1.4240125192
C     -0.7070126071     0.8313152219     2.4219822897
C     -1.5495584897     -0.3819650718     2.3689469122
C     -0.6060287707     2.9313791808     1.0651532121
C     -1.3300021439     2.0740285285     2.0274222988
C     -1.0598853141     2.6575653837     -1.3181536123
C     -1.489319796     3.161009295     -0.0392735195
C     -1.1539934721     0.4038893879     -2.4035002865
C     -1.8545517068     1.6193184193     -1.9679228393
C     -1.0145183854     -2.0425815427     -1.8740128466
C     -1.5967955657     -2.9476051965     -0.917291619
C     -1.8313080202     -0.8868142176     -2.2714508624
C     -2.8405446916     -2.5301117742     1.0281141393
C     -2.9137084718     -2.8000562046     -0.4524748529
C     -2.9999865002     -0.2830074688     2.0090801702
C     -3.6290551575     -1.3954291432     1.3195642296
C     -2.6767624902     2.146762088     1.7205642542
C     -2.7930246366     2.8763149738     0.4256363759
C     -3.5447623721     1.0152769922     1.6868112403
C     -3.2404185609     1.5433260765     -1.5833307456
C     -3.6908923513     2.2170537595     -0.3548445114
C     -4.3434540777     1.1910772965     0.4915954365
C     -3.2416729427     -0.8982650269     -1.9409736919
C     -3.7662435997     -1.8856072039     -0.9982375252
C     -4.4110596039     -1.1653175561     0.1078399312
C     -3.9058936329     0.3124624955     -1.6347019481
C     -4.6453911176     0.1221890503     -0.3359548571


