60

 C     -3.9840092504     -0.7215518732     0.
C     -3.4148982968     -1.1710145204     -1.2240988769
C     -2.8457527005     0.     -1.8863028207
C     -3.9840092504     0.7215518732     0.
C     -3.4148982968     1.1710145204     -1.2240988769
C     -3.4148982968     1.1710145204     1.2240988769
C     -3.4148982968     -1.1710145204     1.2240988769
C     -2.8457527005     0.     1.8863028207
C     -2.7215774713     -2.3718814161     1.2240988769
C     -2.7215774713     -2.3718814161     -1.2240988769
C     -2.6168868776     -3.0894772832     0.
C     -1.4228763503     -2.4644941316     -1.8863028207
C     -1.4893605039     0.     -2.3050581926
C     -0.744680252     -1.2898240318     -2.3050581926
C     -0.744680252     1.2898240318     -2.3050581926
C     -2.7215774713     2.3718814161     -1.2240988769
C     -1.4228763503     2.4644941316     -1.8863028207
C     -2.7215774713     2.3718814161     1.2240988769
C     -2.6168868776     3.0894772832     0.
C     -1.4228763503     2.4644941316     1.8863028207
C     -1.4893605039     0.     2.3050581926
C     -0.744680252     1.2898240318     2.3050581926
C     -1.4228763503     -2.4644941316     1.8863028207
C     -0.744680252     -1.2898240318     2.3050581926
C     -1.3671223729     -3.8110291564     0.
C     -0.6933208255     -3.5428959366     -1.2240988769
C     -0.6933208255     -3.5428959366     1.2240988769
C     0.6933208255     -3.5428959366     -1.2240988769
C     0.744680252     -1.2898240318     -2.3050581926
C     1.4228763503     -2.4644941316     -1.8863028207
C     0.744680252     1.2898240318     -2.3050581926
C     1.4893605039     0.     -2.3050581926
C     1.4228763503     2.4644941316     -1.8863028207
C     -0.6933208255     3.5428959366     -1.2240988769
C     -1.3671223729     3.8110291564     0.
C     -0.6933208255     3.5428959366     1.2240988769
C     0.6933208255     3.5428959366     -1.2240988769
C     0.6933208255     3.5428959366     1.2240988769
C     1.3671223729     3.8110291564     0.
C     0.744680252     1.2898240318     2.3050581926
C     1.4228763503     2.4644941316     1.8863028207
C     0.744680252     -1.2898240318     2.3050581926
C     1.4893605039     0.     2.3050581926
C     0.6933208255     -3.5428959366     1.2240988769
C     1.3671223729     -3.8110291564     0.
C     1.4228763503     -2.4644941316     1.8863028207
C     2.7215774713     -2.3718814161     -1.2240988769
C     2.6168868776     -3.0894772832     0.
C     2.7215774713     -2.3718814161     1.2240988769
C     2.8457527005     0.     -1.8863028207
C     3.4148982968     -1.1710145204     -1.2240988769
C     2.7215774713     2.3718814161     -1.2240988769
C     2.6168868776     3.0894772832     0.
C     2.7215774713     2.3718814161     1.2240988769
C     3.4148982968     1.1710145204     -1.2240988769
C     2.8457527005     0.     1.8863028207
C     3.4148982968     -1.1710145204     1.2240988769
C     3.9840092504     -0.7215518732     0.
C     3.4148982968     1.1710145204     1.2240988769
C     3.9840092504     0.7215518732     0.


