60

 C     2.0345707862     3.7701863536     0.2007411935
C     3.010874391     2.7362342123     0.0754779793
C     2.7790309414     2.0711957295     -1.1581835865
C     1.1874128896     3.8032837067     -0.9486795397
C     1.5936732161     2.7212309195     -1.7825773816
C     -0.1727042302     3.8340290028     -0.472607668
C     1.2355367756     3.5118033169     1.3453567528
C     -0.1420605783     3.5779586377     0.9781764433
C     2.9754868518     1.9558232201     1.283783268
C     1.7726171894     2.3546912213     2.0262077293
C     3.2854939986     0.6258834444     1.1914161473
C     2.9857663486     0.6699288017     -1.2694204654
C     3.4914858471     0.0034617353     -0.1028910461
C     2.1527653986     -0.1155134924     -2.1968157395
C     0.6236231331     1.9261942601     -2.4642939636
C     0.9220292925     0.5154541956     -2.750047286
C     -1.130471902     3.1929469024     -1.2212846194
C     -0.748538912     2.3319346458     -2.3219093428
C     -2.3055806687     2.6256145851     -0.5845554196
C     -1.0692083002     2.6900899561     1.5647531875
C     -2.3284320687     2.4243764862     0.8318463666
C     0.8993985372     1.3773165747     2.5386032756
C     -0.5449893642     1.644923982     2.4579301002
C     2.6123399295     -0.3534100086     2.0182226434
C     1.3853771137     -0.0283850035     2.6279350043
C     3.3513367618     -1.409457347     0.0731696509
C     2.8530338547     -1.658650621     1.4243266398
C     2.2205264598     -1.5169305894     -2.1048250762
C     2.9021956659     -2.1949691034     -0.9949922148
C     1.0628289078     -2.3522832586     -2.4452694451
C     -0.1745537625     -0.3239158957     -3.0745337355
C     -0.1373202076     -1.741744565     -2.8092864418
C     -1.8226315799     1.3978929984     -2.4811212845
C     -2.8511822084     1.639828895     -1.4791571947
C     -1.5427202826     0.1007573137     -2.885943808
C     -3.5907623034     0.5675111167     -0.9629238253
C     -3.2032972032     1.4080967434     1.3180875363
C     -3.9023235741     0.5584193014     0.4107280959
C     -1.4381108774     0.5960377272     2.823615211
C     -2.7828959451     0.5882170303     2.4345933082
C     0.419228984     -1.1195977966     2.7688210227
C     -0.95397663     -0.7981627846     2.875107211
C     1.9850948503     -2.7212642258     1.6570616035
C     0.7123735117     -2.4189071305     2.2803212103
C     2.1684335838     -3.3786111525     -0.6855586258
C     0.9986216921     -3.4576740046     -1.5837203772
C     1.7449349048     -3.6675542498     0.6044487839
C     -0.3257405638     -3.1754003075     1.567745729
C     -0.1753710618     -3.7368216517     -0.8232425559
C     0.2977336458     -3.8769924218     0.5317046983
C     -1.3800880135     -2.1483530434     -2.2109465545
C     -2.2735796042     -1.0175912448     -2.3153855544
C     -3.2507814752     -0.8109377594     -1.3581982755
C     -1.3905944216     -3.0144913612     -1.06863448
C     -3.7564590449     -0.8221514991     0.8866743889
C     -3.1161292484     -0.7875938901     2.1188402134
C     -1.9908962103     -1.6346707593     2.3425971629
C     -1.6482859028     -2.6570377164     1.4041766383
C     -3.2699752984     -1.6513670435     -0.1698189185
C     -2.2441640194     -2.6308829886     0.0643550309


