60

 C     3.3996212957     -2.73395391     -0.0193950905
C     2.2606049677     -3.4369646689     -0.4407672488
C     1.6860571214     -2.8262028432     -1.6460466477
C     3.5034194731     -1.6102335105     -0.8716413889
C     2.4363982291     -1.6311116235     -1.8809212531
C     3.6386489292     -0.4318706402     -0.0985825059
C     3.0534441404     -2.1694738761     1.2994491582
C     3.2676443673     -0.7655990151     1.2739893358
C     1.3812514706     -3.6206862204     0.681009387
C     1.7995713553     -2.6473293572     1.7185740303
C     0.0637380764     -3.8290537668     0.4110165937
C     0.290857599     -2.8819416145     -1.8613683277
C     -0.4508151611     -3.7266164736     -0.95012507
C     -0.3749081159     -1.6855731779     -2.4210123662
C     1.8032866744     -0.4202826929     -2.2693785577
C     0.3745894238     -0.4380202237     -2.5679978129
C     3.2967137081     0.8080188888     -0.6530110706
C     2.4428862619     0.8381892343     -1.8515501412
C     3.1419967031     1.8355234913     0.3164456117
C     2.3891125198     0.1167390984     1.9649039203
C     2.5159378816     1.4721533514     1.5762124295
C     0.7958821763     -1.7745742597     2.303471145
C     1.1102188638     -0.3683084395     2.4846136644
C     -0.9596502072     -3.3214481494     1.332192464
C     -0.6043721279     -2.2084808124     2.2019696103
C     -1.8301697582     -3.5254843339     -0.7928426836
C     -2.1730349939     -3.3427561947     0.6433145248
C     -1.8019242033     -1.6031135815     -2.2858178973
C     -2.5295412069     -2.586628017     -1.5284652007
C     -2.4589973162     -0.3452280637     -2.0607561631
C     -0.3604556601     0.8397547307     -2.587714471
C     -1.7981575451     0.8751711814     -2.2422275952
C     1.7625273935     2.0379105335     -2.1029394771
C     0.3592065389     2.0420701519     -2.4553608159
C     2.6183701295     3.086729722     -0.0601687219
C     1.9901958025     3.2119324002     -1.2871855268
C     1.519917985     2.4811409967     1.8811039161
C     1.6644525598     3.5467583612     0.9649632551
C     0.0304100017     0.6157262105     2.6728110496
C     0.2236742387     2.0536367368     2.3638469283
C     -1.6196416224     -1.2475062431     2.4080503047
C     -1.2943065774     0.1317657084     2.6727650873
C     -3.1168283636     -2.2777242015     0.7281061144
C     -3.4407984447     -1.875648385     -0.6325837331
C     -3.4393831072     -0.5312462907     -0.9753152972
C     -2.8803929127     -1.2747111634     1.6755739098
C     -2.3970526322     0.9507020901     2.1847370464
C     -3.5416641375     0.4844793872     0.0409478097
C     -3.2407715916     0.0903725355     1.3857484887
C     -2.3464541541     2.0161140874     -1.5652147516
C     -3.1787091182     1.7951956925     -0.3535096906
C     -0.2503693868     3.2448284277     -1.8495663896
C     0.7286190404     3.9324966246     -1.1131858509
C     0.5351239135     4.1030855215     0.3119657353
C     -1.5797793844     3.1840069963     -1.3578556657
C     -0.8788673402     2.8622645291     1.9732495019
C     -2.2008268967     2.2712541111     1.8332840528
C     -2.7784397758     2.7474038411     0.6019834675
C     -0.733984118     3.8322840765     0.8765597263
C     -1.8240835818     3.6300627315     -0.0003508561


