60

 C     0.8815297475     4.0314043722     0.6779543403
C     -0.4671634939     4.0209558777     0.4774181073
C     -0.7405560592     3.7656111304     -0.9567871732
C     1.5159829583     3.8320552313     -0.6513870493
C     0.4857222662     3.4373187092     -1.5922319604
C     2.5981450976     3.0288053194     -0.4527367461
C     1.477542991     3.1034189427     1.6104858957
C     2.6648461926     2.6387601015     0.9815120714
C     0.656796563     2.1465465532     2.3122951133
C     -1.3417076268     3.1879952167     1.2404305715
C     -0.8078786843     2.2313184811     2.1700373505
C     -1.8801877811     2.9665560162     -1.0361367707
C     -2.3899573359     2.7856912262     0.3361248008
C     -1.9102811867     1.8670818282     -1.9566039147
C     0.5917391029     2.1867848582     -2.3106856994
C     -0.6507405911     1.459595262     -2.5769453282
C     2.8211395561     1.8617520753     -1.2373976716
C     1.8449610991     1.4168720181     -2.1883083888
C     3.0934683904     1.317220373     1.0425587578
C     3.4162017156     0.8986944271     -0.329420471
C     1.2600809854     0.8394182967     2.6050491034
C     2.4712821651     0.3830662558     1.9307282331
C     0.3965958553     -0.1771508378     3.1170602285
C     -1.6342909347     1.0356325036     2.4244540072
C     -1.0096721472     -0.1144188367     2.9744793654
C     -3.1711357746     1.6869924967     0.6145915524
C     -2.835924409     0.8069793712     1.6974566436
C     -2.9364989197     0.8824853489     -1.7047327692
C     -3.6151987923     0.8791638681     -0.479069481
C     -2.7796275954     -0.5202648786     -2.0931990214
C     -0.5552825578     0.0812653181     -2.9814211867
C     -1.6309320515     -0.8865090688     -2.7500854215
C     1.8700845781     -0.0130950164     -2.5137036521
C     0.6702130854     -0.6322392438     -2.9866625471
C     3.4521136768     -0.4208292624     -0.6470785696
C     2.8080329326     -0.8741898931     -1.8576225932
C     2.6813116873     -1.0466430258     1.6384317517
C     3.2536881336     -1.4258365507     0.3927163898
C     0.7627377417     -1.5684528374     3.0445651887
C     1.7992917357     -2.0220530058     2.2397507689
C     -1.5009010235     -1.4919101157     2.7009922058
C     -0.4241622961     -2.3706116729     2.8278083903
C     -3.239712245     -0.5576665911     1.292594515
C     -3.7548558311     -0.4887798387     -0.0148711609
C     -3.3082315505     -1.3774468358     -1.0295030341
C     -2.5034784129     -1.7146180642     1.7030422252
C     -2.6115857819     -2.531152303     -0.6573340899
C     -2.268336975     -2.7571329312     0.7367155489
C     -1.0337153866     -2.1894439563     -2.5109503308
C     0.3759518078     -2.0545886383     -2.7311868312
C     -1.5121717209     -3.000814665     -1.4684757534
C     2.5008441458     -2.2480697809     -1.626717011
C     2.8051872531     -2.6038660079     -0.2781557025
C     1.2643073906     -2.848145102     -2.0071215132
C     1.2928154352     -3.2065077272     1.5046636745
C     -0.1240809905     -3.3365304083     1.8132278718
C     -1.0466719886     -3.5372195855     0.775452398
C     -0.5688193282     -3.6820388641     -0.5944880875
C     1.749721546     -3.4357116799     0.2162052828
C     0.7914233367     -3.6455039535     -0.8777826239


