60

 C     0.548440394     -4.1599969279     -0.7615569352
C     1.7196827203     -3.7721632613     -0.130121155
C     2.4122320411     -2.8378073748     -1.0222854138
C     0.4237669389     -3.3767150739     -2.0338243893
C     1.5447627424     -2.4981829422     -2.1101261675
C     -0.8843151047     -2.879535263     -2.0795318669
C     -0.6836406278     -4.1354814338     -0.0972432171
C     -1.6196699711     -3.4456625031     -0.955789104
C     -0.777221435     -3.5445588222     1.2128675891
C     1.6792965479     -3.1698724219     1.1734571019
C     0.4068249622     -3.0500540937     1.8775892755
C     2.9659503601     -1.8178126892     -0.2627038895
C     2.570008739     -2.0443466847     1.1339312293
C     3.0713380372     -0.4949093214     -0.7955987754
C     1.3767821007     -1.1294230444     -2.5090896498
C     2.2769730227     -0.1239913049     -1.9649827823
C     -1.1321503947     -1.529704984     -2.5040304275
C     0.0277669135     -0.7301060422     -2.9068780401
C     -2.3162721485     -0.8635212103     -1.9757361429
C     -2.4292199513     -2.6164367042     -0.1805398914
C     -1.9658531612     -2.7187177227     1.2036570669
C     -2.9050531093     -1.3688981545     -0.7062535714
C     -2.1315533574     -1.6193687176     2.0720109995
C     0.2423747287     -1.8968317736     2.7156785299
C     -1.0171645029     -1.2509830324     2.8859661427
C     2.4065923264     -0.9130087542     1.9742101292
C     1.258453181     -0.8565864857     2.804236091
C     3.3992733284     0.5115529047     0.1565867743
C     2.9563168162     0.3281005052     1.5465424257
C     3.3441137069     1.8733021842     -0.1553517806
C     2.0021172959     1.3129031929     -2.1845845995
C     2.5954975797     2.310721367     -1.2988921978
C     -0.1898963002     0.645570538     -3.1554407172
C     0.7909927858     1.6710360503     -2.8052020046
C     -2.4798966526     0.5097645525     -2.2697950782
C     -1.4686312585     1.1870626172     -2.96865977
C     -2.9893062431     1.4699086681     -1.2764627203
C     -3.3917387806     -0.4390144333     0.2276189537
C     -3.0109999571     -0.5585181299     1.6342799365
C     -3.4512984624     0.9894829512     -0.0701561203
C     -2.8746016935     0.7418945078     2.1645589135
C     -3.1103092703     1.7008569903     1.125372758
C     -0.7675048423     0.1632486965     3.2060404473
C     0.6363772697     0.4117341884     3.1092047006
C     -1.6782057917     1.1378501654     2.8392529417
C     2.4315448761     1.5873289295     1.9882316812
C     2.7862502154     2.5550269649     0.9889831102
C     1.1462465748     1.6483256145     2.6131807346
C     1.8620400975     3.4814885526     -0.9123613113
C     1.8930248617     3.5300079256     0.5442584417
C     0.0485836023     2.8782908322     -2.3991998901
C     -1.312691576     2.5339915335     -2.4127058181
C     -2.1911787848     2.6958409459     -1.3223117444
C     0.5198173981     3.6276158549     -1.3044124317
C     -2.1261738581     2.7185084522     1.1441814091
C     -1.1971726229     2.3803626597     2.2209836925
C     0.1761662377     2.6785863492     2.1324650592
C     0.5603865734     3.5513816703     1.0375615646
C     -1.656862736     3.265714098     -0.0951199619
C     -0.3214122813     3.7447490444     -0.1059599346


