60

 C     -2.2749285908     3.0268378067     1.0036805244
C     -3.2012252446     2.2293015219     0.3912450784
C     -2.9941148399     2.2726844496     -1.0670791089
C     -1.4034583585     3.5798632844     -0.0597929675
C     -1.7988548062     3.005227972     -1.3259928558
C     -0.1012229722     3.6113209345     0.3943443744
C     -1.4247948197     2.5422269688     2.0511946123
C     -0.1242879547     3.1371115917     1.8039157835
C     -1.5361128465     1.2102524962     2.5287870811
C     -3.3610826012     0.870187098     0.8026088802
C     -2.600212883     0.3805411833     1.9227334243
C     -3.1616632983     0.9560194033     -1.5294205473
C     -3.4868955037     0.0730668258     -0.3975732444
C     -2.2886516457     0.4838161444     -2.5101681318
C     -0.7831834662     2.465540145     -2.1794841385
C     -1.1411103514     1.2780872602     -2.8962806816
C     0.9950744187     3.2432983756     -0.4855069446
C     0.6448108954     2.6647162501     -1.8132329319
C     2.199245895     2.875854109     0.1560765588
C     0.9935980201     2.5739225151     2.3411125428
C     2.2199137757     2.6406087324     1.5860502245
C     -0.305320918     0.5483277178     3.032278739
C     0.9096407942     1.2765631994     3.0027170329
C     -0.2076675239     -0.9163012933     3.0426528777
C     -2.4900113337     -1.0228802322     1.9794428164
C     -1.3614115925     -1.6889341218     2.6653365252
C     -3.1378754542     -1.2903226896     -0.4086079835
C     -2.9063623137     -1.8552372671     0.8922881616
C     -1.9256543609     -0.9148644623     -2.5527207451
C     -2.3829535415     -1.841020371     -1.5633469297
C     -0.1467737911     0.356157604     -3.3623663788
C     -0.6063063285     -1.0060954369     -3.113681865
C     1.6002116874     1.8252616713     -2.4171747594
C     1.1939994219     0.6655497722     -3.2215992971
C     3.0953870802     1.898437265     -0.4315082037
C     2.8400581294     1.4463874398     -1.7223009961
C     2.9398702448     1.4651831033     1.828566117
C     2.1750882906     0.6167126126     2.7145819057
C     3.4838056369     0.9525940998     0.5945156842
C     1.0564763679     -1.540638329     2.8004720369
C     2.2228109262     -0.7469496464     2.5165421504
C     1.1684465876     -2.7487033514     2.0114137996
C     -1.2338428758     -2.9800542421     2.1489268045
C     -2.1786960692     -3.0822481465     1.0189601084
C     0.0314193595     -3.4776477104     1.6965980881
C     -1.5445762514     -2.976583835     -1.3394546277
C     -1.5449446148     -3.645223555     -0.0555400684
C     -0.159581445     -3.950531896     0.3312930022
C     0.3066854436     -2.0139059482     -2.6793473139
C     -0.1896482568     -2.9935037561     -1.7938515992
C     0.6632571593     -3.5023686845     -0.6860583332
C     2.1212837864     -0.3951914178     -2.9671408449
C     3.119808738     0.0925210243     -2.0247723676
C     1.7084085926     -1.6641959144     -2.5793828563
C     3.4680769407     -0.4567482765     0.3456855191
C     2.9021944623     -1.3146769361     1.3537514578
C     2.1972248706     -2.5033765634     1.0047261261
C     1.9336209737     -2.8371274354     -0.3827834177
C     3.3245610494     -0.8795315015     -1.0239537327
C     2.4884466056     -2.0193174578     -1.3723737653


