60

 C     -1.0807852076     -4.8704163593     0.1418151931
C     0.0827470504     -4.9215708293     -0.6664167722
C     1.1646217538     -4.4084673116     0.0650409309
C     -0.6833836957     -4.1402505052     1.3771235258
C     0.7107165438     -3.906076886     1.3746980042
C     -1.5507360354     -3.0385674822     1.6468046512
C     -1.9556598929     -3.960619804     -0.4801323145
C     -2.4759400294     -3.0332460066     0.5028275566
C     -0.0842250228     -3.953410792     -1.7780893357
C     -1.3782399582     -3.3854894959     -1.7037785212
C     1.929914266     -3.513735305     -0.7774489645
C     1.0516189062     -3.0974521176     -1.9017978257
C     2.6874471763     -2.5893184022     -0.1582511028
C     1.2433861063     -2.6797666328     1.885798055
C     2.4978984778     -2.2973663404     1.2920763364
C     -1.0655331426     -1.7917107883     2.1560180533
C     0.3648816729     -1.5978413025     2.3533239475
C     -1.8937045441     -0.6033479657     1.9300485413
C     -2.924125935     -1.8427559117     0.0446093562
C     -2.8802411018     -0.697819025     0.9156173429
C     -1.5601031336     -1.995217954     -1.9973168448
C     -2.6401972147     -1.3529466899     -1.3165094233
C     0.9172637288     -1.710901334     -2.1864462084
C     -0.4254873974     -1.1394846347     -2.3418937441
C     2.9689094379     -1.3227291268     -0.8198708922
C     2.0225094969     -0.8094778755     -1.7790855325
C     2.9781616785     -1.0283537157     1.4739855064
C     3.4579741762     -0.4786441442     0.1871372007
C     0.8817019168     -0.2132318371     2.4652365397
C     2.241081987     0.0126422992     2.1081224339
C     -1.4155553364     0.7435044081     2.2387698802
C     0.0000546712     0.9729792036     2.4596644465
C     -2.2157734569     1.8363190636     1.7709448715
C     -3.179789917     0.4201846753     0.0815149496
C     -2.75161544     0.038254184     -1.2715197277
C     -2.9903981876     1.6711917475     0.5443212413
C     -0.5863492524     0.3076801     -2.3409109275
C     -1.8336039749     0.9189296934     -1.9139509148
C     1.8783130908     0.6100182594     -1.8864235125
C     0.5987045642     1.1751290441     -2.3630629897
C     3.2303306809     0.8770587292     0.1677071678
C     2.6051950088     1.2440349335     1.4355446814
C     2.677724519     1.4644907405     -1.0102221202
C     0.5478137222     2.3166043716     2.1898705592
C     1.8592998354     2.4137445985     1.5410757401
C     -1.7023971155     3.1355033446     1.6939882925
C     -0.3396040907     3.419381778     1.9171908566
C     -2.6655163279     2.7394242219     -0.3816595949
C     -1.9414605695     2.3485202489     -1.5816591484
C     -2.1409720235     3.7777567692     0.4270718868
C     0.4032521121     2.5657649931     -2.3264605151
C     -0.8752225046     3.1957057264     -1.9999112436
C     2.3532401387     2.8128331268     -0.8420455556
C     2.0780363531     3.3562341533     0.4627867351
C     1.4336740642     3.4477499214     -1.7548728802
C     0.012586036     4.4721579456     0.9671820523
C     -1.1274938515     4.61034733     -0.0106601053
C     -0.575924242     4.4275588909     -1.2958785797
C     1.1928841651     4.4737508042     0.2525302705
C     0.8680957648     4.5747611692     -1.1841717094


