60

 C     1.6090435116     3.8041836786     -0.7801571745
C     0.3451498928     4.2339478585     -0.4223634614
C     -0.6091297171     3.7697072608     -1.4409665033
C     1.4616111524     2.9702054941     -1.9956953837
C     0.0777882939     2.8698412506     -2.325410181
C     2.2495830999     1.8356501257     -1.8635169414
C     2.4385443074     3.0946326369     0.13839918
C     3.0053186878     1.9704263344     -0.6013979876
C     1.9669502512     2.8620756981     1.4486051156
C     -0.2009149922     3.933569089     0.8771549484
C     0.6167458867     3.2540076412     1.8034743818
C     -1.7798395488     3.3662516902     -0.792284744
C     -1.5701943984     3.4787530642     0.6662449042
C     -2.4750531993     2.2591351173     -1.3043158314
C     -0.4790207136     1.5733259917     -2.6304174718
C     -1.8453949235     1.3834420737     -2.2601747742
C     1.7778807114     0.5368582073     -2.2839371779
C     0.3900572252     0.3929824054     -2.685455064
C     2.5102936527     -0.6076553599     -1.7693466675
C     3.3955641142     0.8360237053     0.0537307439
C     3.3113918571     -0.4455898053     -0.5978162385
C     2.224242938     1.568408591     2.0731764551
C     3.0349124578     0.6355353939     1.4545574571
C     0.0522868885     2.1596485977     2.589639467
C     1.0213986771     1.107077343     2.7423773432
C     -2.1197160332     2.4984569097     1.479761945
C     -1.2883862205     1.8161422597     2.4654727169
C     -3.2640552453     1.4251101865     -0.4284028586
C     -3.0482265875     1.517237831     0.9516912796
C     -2.4211866863     0.0617288675     -2.1097251438
C     -3.3749553329     0.117334143     -1.0320436184
C     -0.2243153234     -0.9511219408     -2.663798951
C     -1.6633363044     -1.1082080635     -2.3725906975
C     1.9763649119     -1.91681501     -1.9993672218
C     0.6048527827     -2.0716206901     -2.4480270585
C     2.3199625043     -3.0034321631     -1.1591091282
C     3.2519526506     -1.4489145062     0.4381601177
C     2.811124966     -0.7682816452     1.6459590566
C     2.8252920575     -2.7377855372     0.1571827147
C     0.6582152213     -0.2713674901     2.7760282929
C     1.6571992124     -1.2487484358     2.3375706667
C     -1.6942956064     0.438870456     2.5592498358
C     -2.8855808471     0.2926762426     1.7274774409
C     -0.7661207314     -0.6232390149     2.7104080441
C     -3.563347524     -1.0085229047     -0.2266258774
C     -3.2200126497     -0.9268239437     1.1951732016
C     -2.1222538394     -2.3200769744     -1.7345983915
C     -3.0629506519     -2.234414933     -0.6858444256
C     0.1038100639     -3.321906673     -1.8482402814
C     1.1623308309     -3.8648161526     -1.029191515
C     -1.1913588742     -3.3899349     -1.3867800456
C     1.9388234832     -3.3783679661     1.0919866673
C     1.2427361483     -2.5929587883     2.0322028978
C     0.9452761893     -4.1234895189     0.3280347397
C     -1.1781807939     -1.9674710824     2.2500151291
C     -2.4372848761     -2.1096177362     1.5450712741
C     -2.5246371688     -2.9982588105     0.4505061059
C     -1.4406041439     -3.7747375733     0.0208539973
C     -0.1892045078     -2.9411121466     1.9698309176
C     -0.3471474872     -3.9079563788     0.8976034788


