60

 C     2.6857586815     -2.6594495463     -1.1684800854
C     1.6613535359     -2.9094365872     -2.0490095385
C     0.6991348641     -3.8198190904     -1.4099146781
C     2.3413225394     -3.2819700368     0.1229803905
C     1.1117007033     -4.0004188147     -0.0433541964
C     2.4758633565     -2.2790971288     1.0897863309
C     3.1136296822     -1.3234098799     -0.9515782433
C     3.1391531744     -1.1167181049     0.4684648462
C     2.6354107796     -0.2676907506     -1.7952717618
C     0.9427042229     -1.820291767     -2.6791104634
C     1.4182613602     -0.4937524807     -2.5965616156
C     -0.5921600809     -3.3571782323     -1.7169661198
C     -0.4664519701     -2.1237415179     -2.5178649781
C     -1.6054351861     -3.438713749     -0.7323155399
C     0.14065113     -3.8780064987     0.9758480598
C     -1.2193497529     -3.8023694413     0.5951273474
C     1.4594726465     -2.0344925067     2.0948432792
C     0.3391490048     -2.9139462489     2.080622514
C     1.3108027496     -0.6628714079     2.612446259
C     3.0867686365     0.1732149305     1.0122345867
C     2.2105664965     0.4252946203     2.1717288624
C     2.8989823956     1.0133418246     -1.3035448535
C     3.3053462548     1.2224732978     0.0563679135
C     2.119532852     2.179125404     -1.7273729098
C     0.4523809594     0.6022068877     -2.7462069608
C     0.8655795457     1.9665370459     -2.3988551049
C     -1.4069165714     -1.0951487087     -2.4364530785
C     -0.9626947943     0.2659848083     -2.7747439513
C     -2.555378856     -2.3701659382     -0.6198985872
C     -2.5449515196     -1.2838211617     -1.5008204466
C     -1.9405216729     -2.9588402775     1.5298282355
C     -0.9723628946     -2.4259745231     2.4678762162
C     -2.7816432319     -2.1035538256     0.836221242
C     0.0314601611     -0.2816619643     3.084757653
C     -1.1207728504     -1.1263194114     2.9010944635
C     -0.4443741339     1.0786851056     2.9913767639
C     1.8062805747     1.7663408539     2.3861158517
C     0.4249493869     2.0889206942     2.6882337922
C     2.9625102992     2.5692981587     0.3689446772
C     2.2891988953     3.1974046494     -0.7662521792
C     2.2597808703     2.8380690372     1.5277382784
C     -0.0173782171     3.2053579329     1.8402818354
C     1.1491523374     3.9006410801     -0.2414066721
C     1.1265121272     3.6961495969     1.1896930265
C     -0.1475295844     2.9472316356     -2.1171435059
C     -0.0538461442     3.8060268294     -0.9124821359
C     -1.9177372033     1.3152354119     -2.581318831
C     -1.4924971337     2.6254737623     -2.3073294297
C     -3.2549274407     -0.1069866209     -1.0670977854
C     -3.0880831465     1.0765182984     -1.7404084998
C     -3.0043550377     -0.7588991433     1.3155513843
C     -2.2177635771     -0.2882241497     2.4151218467
C     -1.8079016904     1.0773639096     2.4830694587
C     -3.4169715771     0.197713437     0.3768205642
C     -1.3004868111     3.1529047025     1.1758427327
C     -1.3003369236     3.6426808582     -0.1775163031
C     -2.2366220703     3.1098935037     -1.109337976
C     -3.169967375     2.1742805339     -0.7637431001
C     -2.2406584045     2.0678209621     1.5386273149
C     -3.1832942718     1.600779642     0.5547141047


