60

 C     -1.9355821632     -4.4190178351     -0.3871691641
C     -0.5985021963     -4.9204931987     -0.5308873997
C     0.1209238685     -4.5293710532     0.6202280996
C     -1.9747315985     -3.6805724933     0.8720831115
C     -0.7152292877     -3.7321921863     1.5198549798
C     -2.5716017786     -2.3808372417     0.7001726427
C     -2.0697061539     -3.3584075365     -1.3099901911
C     -2.7100625954     -2.1815628757     -0.7216658547
C     0.0667270991     -4.1213058604     -1.5647561998
C     -0.8496558037     -3.1640269957     -2.0792207573
C     1.4320755749     -4.020848924     0.2799306291
C     1.3598686858     -3.6525065369     -1.1384017715
C     2.0275028199     -3.1410771874     1.1561763054
C     -0.1770463272     -2.5536106366     2.177937436
C     1.2265466024     -2.3763939456     2.1528063413
C     -2.1928101991     -1.2741785589     1.4807330231
C     -0.9752600766     -1.3267605622     2.2704828598
C     -2.6454068069     0.0058414643     0.9762202785
C     -2.4988501865     -0.9254049196     -1.2701168927
C     -2.7952782016     0.2226393407     -0.4266016963
C     -0.4427296117     -1.8368409554     -2.4084735354
C     -1.4414544539     -0.7755337043     -2.2838990547
C     1.8437264569     -2.385555125     -1.5692417232
C     0.9596340196     -1.4701547586     -2.3046405375
C     2.9540089206     -2.2163169621     0.622443488
C     2.8414969696     -1.7799092137     -0.7132736794
C     1.839866317     -1.0686219533     2.3185178795
C     2.9654379807     -1.025519192     1.4502203983
C     -0.3457513633     -0.0562426886     2.6281035084
C     1.0920893111     0.1179296339     2.5480605821
C     -2.3538893106     1.1189478797     1.8062223565
C     -1.1328137159     1.1108808925     2.5651871508
C     -2.5670998756     2.4225703768     1.3557421102
C     -2.6187915581     1.5718377931     -0.9536380989
C     -2.6925787834     2.6909125463     -0.0446537008
C     -1.0582632718     0.5221256532     -2.5743246866
C     -1.7517106093     1.7059197137     -2.0701723552
C     1.3183635834     -0.0648193084     -2.4197807977
C     0.3205681419     0.8692017549     -2.7706028465
C     3.0734736676     -0.3493217475     -0.7153879419
C     3.1951944473     0.103285865     0.6780189948
C     2.4486974106     0.4876840861     -1.6406007505
C     1.6240513891     1.4098060774     2.0851511768
C     2.6684351478     1.3508444915     1.08435306
C     -0.5765147599     2.4626827497     2.5167734745
C     -1.5894925488     3.3181738113     1.9689614401
C     0.8046983529     2.6335154647     2.1570697494
C     -1.9330846787     3.8735490984     -0.2873242617
C     -1.2469891876     4.2614335422     0.9957213897
C     -0.8711770092     2.8372901549     -2.2143396772
C     0.4361586455     2.3042158081     -2.5571884106
C     -0.9897125359     3.9547346175     -1.326476348
C     2.4735823807     1.8826213051     -1.3290238978
C     2.6899475517     2.338655723     0.0538083105
C     1.5826482009     2.8220495685     -1.9322166623
C     1.1296521284     3.7669933786     1.3018502617
C     0.0729945304     4.5817841616     0.7266186506
C     0.2286554191     4.5199203428     -0.7436549869
C     2.0788128623     3.5699504523     0.2415387871
C     1.4459385631     3.9494061088     -1.0232648961


