60

 C     -0.2892595737     4.3136822243     1.2289679987
C     -1.1108195147     4.4107150351     0.11550805
C     -0.2811696535     4.2554834049     -1.1225441895
C     1.0912175844     4.2064768224     0.7257696716
C     1.0495354635     3.9952334542     -0.7240914814
C     1.7634259382     3.3242106347     1.5294870724
C     -0.4951339815     3.2551774838     2.2042553952
C     0.8074699985     2.762054228     2.5095213224
C     -1.5335272885     2.2753616067     2.012223922
C     -2.2232274649     3.5723974727     -0.0152204758
C     -2.4473532287     2.4976311543     0.9141206165
C     -0.9835024834     3.3839128752     -1.9989014058
C     -2.2347479726     3.0215692797     -1.3652208507
C     -0.2629723737     2.3785447649     -2.6629438246
C     1.779260508     2.880364978     -1.2987394841
C     1.1391575983     2.1924865541     -2.3794075345
C     2.5284443097     2.2382798549     1.0111992804
C     2.6340165938     2.0511338464     -0.4162654354
C     1.1094116938     1.416289181     2.6809023376
C     2.3072890098     1.1036960793     1.8690739871
C     -1.2627516534     0.8819787549     2.3776961205
C     0.0792613474     0.4439283495     2.7575728374
C     -2.1083627349     -0.1563190488     1.8450530839
C     -2.8741718269     1.3801032294     0.1232812165
C     -2.619291302     1.6801950836     -1.2933500245
C     -2.7918588964     0.0763128479     0.5714620477
C     -0.8305572763     1.0513127697     -2.8259083542
C     -1.9853185539     0.6635110252     -2.0884910002
C     1.4545670234     0.8106349949     -2.6958191582
C     0.2354352627     0.1007861055     -2.996032842
C     2.9774861409     0.740530035     -0.8078634342
C     2.4591569595     0.1401610727     -2.0197385858
C     2.5698170843     -0.2015134248     1.4628204237
C     3.1071880521     -0.3415862183     0.1419507136
C     0.488252281     -0.9555199542     2.6694221481
C     1.786375748     -1.3047282541     2.0555890872
C     -1.8442730116     -1.4976214092     2.2135435778
C     -0.5181448357     -1.9289663332     2.6637016105
C     -2.3992477016     -2.550774064     1.4779340894
C     -2.7738304883     -1.0003429373     -0.4193596915
C     -2.1328994673     -0.7244844419     -1.6960629926
C     -2.7702225124     -2.3156365215     0.0877956024
C     0.0724809087     -1.2756520823     -2.7196058726
C     -1.2327633991     -1.7276365452     -2.2440573666
C     2.3818968994     -1.2813889532     -1.8596776297
C     2.9211427564     -1.5747441547     -0.536751279
C     1.265807141     -2.0321457248     -2.3096235334
C     1.9432896951     -2.5896271905     1.522284241
C     2.5392954711     -2.7165842577     0.1714465223
C     -0.313470727     -3.2950372164     2.2219602307
C     -1.535557927     -3.7119576874     1.5597839172
C     0.9274421217     -3.6315319504     1.6358763081
C     -2.1880627427     -3.3599730962     -0.653381454
C     -1.339406555     -3.0692574585     -1.7518910416
C     -1.4843372708     -4.2905193681     0.282217164
C     1.1051415945     -3.3483049615     -1.7318690755
C     1.8338519808     -3.7086198194     -0.5127721294
C     0.9382823428     -4.3876428926     0.4007720138
C     -0.1687312525     -3.8996373879     -1.5987206578
C     -0.2604252385     -4.6264014491     -0.2988819052


