60

 C     -0.7976682934     -4.6949183911     -0.1971498016
C     0.2077887128     -4.6018380399     -1.1177476468
C     1.4384056183     -4.1813733216     -0.4446893804
C     -0.2759337814     -4.2811312375     1.126664957
C     1.1428219047     -4.0342234664     0.9781965326
C     -1.1012043941     -3.2453635686     1.5863956802
C     -1.877707196     -3.7971450527     -0.5805286624
C     -2.1451371384     -3.006465178     0.5466383394
C     -0.1619131801     -3.5875801437     -2.1209221718
C     -1.4876097253     -3.1064504815     -1.8039806723
C     1.8995156278     -3.0553484349     -1.1351105732
C     0.8689493809     -2.6450328519     -2.1459366762
C     2.6033984122     -2.0212300532     -0.4647559268
C     1.6764847838     -2.924602629     1.6308622903
C     2.6237809906     -2.0783423952     0.9588082846
C     -0.5731633049     -2.0776111883     2.2709302458
C     0.8311358876     -2.0065265948     2.4024347977
C     -1.3226723863     -0.8295966152     2.2904500063
C     -2.6646356495     -1.7168999918     0.3908189081
C     -2.5538532001     -0.7647636584     1.4971102839
C     -1.7706813305     -1.7353563406     -1.9217086472
C     -2.6901792274     -1.1794150138     -0.946665428
C     0.6151386635     -1.2443034968     -2.3671703563
C     -0.7490587073     -0.7952618305     -2.4052314728
C     2.7024877989     -0.7246328004     -1.1178937287
C     1.6801043009     -0.2924499259     -2.0622999284
C     3.3733059013     0.2827480181     -0.3719494949
C     2.6739914967     -0.8300836546     1.6835854798
C     1.4890313985     -0.7221417998     2.4911386938
C     3.1934659445     0.2806592526     1.0976544616
C     -0.6550143944     0.4289599024     2.6129171636
C     0.8028288427     0.5094367123     2.5882249127
C     -1.3749571261     1.6510796784     2.4382731818
C     -3.2008224561     0.4631617757     1.3274719826
C     -2.6851950586     1.6378771343     1.9441356774
C     -3.068690035     0.1633004208     -1.0985847119
C     -3.6047265868     0.8690410356     -0.0134216918
C     -1.0278191205     0.6409274146     -2.4071558721
C     -2.2949322888     1.0718609372     -1.9371325457
C     1.4575544321     1.1281677949     -2.2976272144
C     0.0678048118     1.6088301798     -2.4729434212
C     3.3354338857     1.5973524221     -0.7824384242
C     2.4432064579     2.0510221523     -1.8012928305
C     2.7478405613     1.5901148245     1.4944211004
C     1.4894935097     1.7479680957     2.144264442
C     3.1240976505     2.460011092     0.4063397462
C     -0.7033984413     2.8879165617     1.966879531
C     0.6988959207     2.95457901     1.7994961857
C     -2.8061992907     2.7605923823     1.0092486638
C     -3.3122260825     2.2690262364     -0.1927440896
C     -2.5143565174     2.399520777     -1.4062921943
C     -1.6179941114     3.5417243497     1.0520545645
C     -0.238817706     2.9652017562     -2.1219847318
C     -1.4722996524     3.2998330654     -1.4285085488
C     -1.1008320962     4.022411474     -0.1792018698
C     2.0606829154     3.3840038678     -1.4004505706
C     2.393112422     3.5490289325     0.0470300687
C     1.1774255944     3.8630779406     0.7553341771
C     0.7736835812     3.8023669344     -1.5487292551
C     0.2578313707     4.2982862245     -0.2455319188


