60

 C     0.1463324833     -3.5500680219     -1.7464214115
C     -0.9314012511     -2.9326505653     -2.3043029992
C     -2.0776296932     -3.0569543012     -1.3697564989
C     -0.2460929138     -4.0641504417     -0.3990175665
C     -1.6110245725     -3.6643150357     -0.1590506344
C     0.7786417346     -3.7126268674     0.4612325789
C     1.408503795     -2.8905264008     -1.6708529877
C     1.908524188     -3.1809988073     -0.3627024106
C     1.5901638608     -1.5776572638     -2.2404169066
C     -0.8436061052     -1.5735130239     -2.7439288718
C     0.4100755862     -0.8819435367     -2.7496024426
C     -2.7654132733     -1.8495697101     -1.3735384011
C     -2.0326874626     -0.9261006473     -2.2645156343
C     -3.3212071818     -1.3282568877     -0.1536833366
C     -1.9284744697     -3.0118483225     1.0552363318
C     -2.8688589502     -1.9250478736     1.0715227152
C     0.4844170716     -3.0412507824     1.7341589117
C     -0.8675892127     -2.6986722281     1.9965886137
C     1.4812585822     -2.1769993948     2.2592598998
C     2.8677127126     -2.3710484856     0.2164334944
C     2.7549767427     -2.0399490913     1.5951355535
C     2.7034124504     -0.7916895529     -1.7158405276
C     3.3704551206     -1.2104834105     -0.5163362691
C     2.7281255734     0.6019844562     -2.0177864275
C     0.3442270875     0.5913555992     -2.7563825773
C     1.5429754986     1.2918524375     -2.5675563947
C     -2.1267605207     0.4790498432     -2.1189136629
C     -0.9459203007     1.2924504372     -2.4891996188
C     -3.6331407014     0.0550623128     -0.1582663743
C     -3.0955307134     0.9521870252     -1.1951059167
C     -3.5828996056     0.7907773869     1.0469762513
C     -2.4771896564     -1.0384420057     2.1573780474
C     -1.1943940618     -1.438580951     2.637673893
C     -2.8267853903     0.3062450859     2.1447641127
C     1.1497772139     -0.8778763973     2.7858718745
C     -0.188723588     -0.4470355694     2.8925580641
C     3.2277984243     -0.7067099894     1.7487343958
C     3.7279860438     -0.2319330347     0.4838978226
C     2.2169804552     0.0415057363     2.4034523921
C     3.3330977682     1.5059002266     -1.1240561129
C     3.6233718304     1.1235856452     0.2134170149
C     1.5412534229     2.6612445786     -2.0750543801
C     2.5837634392     2.7484886123     -1.1173517352
C     -0.9279820117     2.6362652692     -2.069695432
C     0.3320631696     3.3125221333     -1.8051725675
C     -2.9479291081     2.2781577948     -0.630809479
C     -3.1754778261     2.153700222     0.7681188974
C     -1.9071153398     3.1044735789     -1.0698541343
C     -1.8361908608     1.3412626736     2.4767564586
C     -0.4946445935     0.994430199     2.7163766124
C     -2.1732784677     2.5317492777     1.695080737
C     1.9557183149     1.4122979573     2.0542580162
C     2.8036388432     1.9896850151     1.0694436652
C     2.2934463459     3.0712706732     0.2328979942
C     0.5826859674     1.9370085111     2.2749264418
C     0.1918088813     3.9692443828     -0.5460916333
C     -1.1769603776     3.8332240933     -0.0955237742
C     -1.1636540393     3.3951589177     1.2610711787
C     1.0612754254     3.6606536942     0.5314733541
C     0.2240944157     3.1341047239     1.6220919966


