60

 C     0.3329262572     -4.2760476892     0.413864234
C     -0.3959922291     -4.1900463019     -0.7770669819
C     -1.7196910868     -3.6962063149     -0.4478952589
C     -0.5162415214     -3.8283474439     1.5004774557
C     -1.7806203307     -3.4048533613     0.9563045826
C     0.257237596     -2.9230185798     2.2638937364
C     1.623532947     -3.6447883145     0.5300456108
C     1.6055596425     -2.7859600834     1.7049804728
C     2.2325559398     -3.167652958     -0.6435748265
C     0.1051422865     -3.4007539857     -1.8730447993
C     1.4212192234     -2.9694171979     -1.8643120485
C     -2.0898732772     -2.7064263809     -1.3942098677
C     -0.9413925219     -2.4519897843     -2.2632859243
C     -2.89288989     -1.6371093269     -0.994755832
C     -2.3761185675     -2.1617295471     1.3825126331
C     -3.0616884202     -1.359356812     0.4257894279
C     -0.3557636652     -1.7776168247     2.7809969197
C     -1.7066827348     -1.4163575406     2.4188801574
C     0.4029551161     -0.5719302395     3.0147485496
C     2.2843036577     -1.5233570978     1.7378407741
C     1.6890602679     -0.3766001918     2.4565221028
C     3.0877928331     -2.0510310765     -0.5243428555
C     3.1244870543     -1.2246104058     0.6199674609
C     1.7380798272     -1.6423133863     -2.3858259924
C     2.8585051754     -1.1732040468     -1.6543288837
C     -0.6636484733     -1.139813404     -2.7260071226
C     0.7379924596     -0.7007411746     -2.7756219352
C     -2.797721978     -0.396870761     -1.6789164316
C     -1.7143089954     -0.1336042006     -2.57285203
C     -3.19418011     0.068853313     0.5698151368
C     -3.2003573314     0.6389834995     -0.7393324996
C     -1.8312196927     0.0075224799     2.5515251667
C     -0.555630652     0.4967242671     3.0642798445
C     -2.5586259926     0.8013242568     1.6320062355
C     -0.1579739304     1.7877128169     2.8948834313
C     2.0785256483     1.0119203459     2.146592008
C     1.2221373289     2.0624758767     2.5693444711
C     3.2359450468     0.1627661972     0.1496051539
C     3.0271589609     0.1659078852     -1.2770377313
C     2.8531732073     1.2685525323     0.9186354964
C     1.0600886917     0.7343698784     -2.6758764713
C     2.2411370445     1.1715645072     -1.8985829234
C     -1.3741652362     1.2357833296     -2.771140182
C     0.0082943373     1.6646013653     -2.8135078023
C     -2.8523393762     1.9681106363     -0.960058129
C     -2.1001691494     2.2674014583     -2.1112390678
C     -2.1460412693     2.2148801167     1.4033783284
C     -1.0176325764     2.7344660685     2.1667593747
C     -2.3699355882     2.8118791247     0.1394077543
C     1.2033845403     3.3449458142     1.9072985149
C     -0.1951732147     3.7498004341     1.6750210231
C     2.6383481516     2.4787011223     0.1662522948
C     2.2482534569     2.4103988787     -1.2270316274
C     1.9071007786     3.5627568023     0.7443989096
C     0.0933071361     3.0284700101     -2.2500727789
C     -1.1962470608     3.3552271347     -1.7773035376
C     -1.426268777     3.7820180815     -0.4330938539
C     -0.3177738699     4.2217622474     0.3183076658
C     1.197832985     3.3972126048     -1.4539543797
C     0.9903302206     4.1246614458     -0.2600629531


