60

 C     1.2635712364     -3.9230867619     -1.1107584618
C     -0.060068028     -4.0599905866     -1.3382996848
C     -0.7309073297     -4.2801486044     -0.0097601311
C     1.487097357     -4.0111471793     0.3743418345
C     0.1937926016     -3.9403356172     1.0280789092
C     2.4920223378     -3.1532262694     0.6743819414
C     1.9835151531     -2.7677420131     -1.6008684736
C     2.9241557337     -2.4832313934     -0.5713999639
C     1.2734057523     -1.6691442182     -2.2229853765
C     -0.8118728734     -3.0436628456     -2.05556308
C     -0.1752317477     -1.7802438977     -2.4257188699
C     -1.9465269193     -3.6742464244     -0.0837427229
C     -2.0636588675     -3.00557044     -1.4150745485
C     -2.3657610321     -2.7263782306     0.8848793706
C     -0.099170398     -2.8319766725     1.9108039329
C     -1.4481438829     -2.2383468501     1.8755374526
C     2.3316281282     -2.1233058833     1.6673201854
C     1.0371022827     -1.9437427975     2.294890169
C     3.2733745975     -1.1881769529     -0.2548038289
C     3.0342512897     -0.973754912     1.1889961477
C     1.8612575819     -0.3410278443     -2.0985250161
C     2.9576154252     -0.1517047192     -1.1610582439
C     1.0820783703     0.8363355646     -2.4639978227
C     -0.9980892617     -0.5696376569     -2.4316219507
C     -0.3600202435     0.7502277706     -2.5219525372
C     -2.7965861573     -1.8406546836     -1.2568977214
C     -3.1833449523     -1.7750970141     0.1512390946
C     -2.3723729002     -0.6374876358     -1.9264778768
C     -3.4975574767     -0.5607246788     0.6958284534
C     -1.6732540611     -0.8447318593     2.3567897319
C     -2.7744084758     -0.0705101325     1.8688514359
C     0.7635055119     -0.6334770818     2.7602606545
C     -0.5710406633     -0.0997152802     2.852746888
C     2.7567519956     0.3294348128     1.6589391496
C     1.6589698486     0.4835797973     2.549944626
C     3.230160728     1.1418250166     -0.6416793895
C     3.0745519747     1.4123059879     0.800044136
C     1.6949250001     2.1401068552     -2.2307514901
C     2.8107870125     2.252208419     -1.3337811446
C     0.9160166042     3.3137016534     -2.0541056567
C     -1.1499748337     1.9684534929     -2.1989188759
C     -0.465878988     3.2307661389     -1.9114564878
C     -3.0164595825     0.5342959485     -1.456870167
C     -3.6793191801     0.5168383897     -0.1938414922
C     -2.4067378212     1.8316971724     -1.5928821792
C     -2.6997655886     1.362690804     1.7363150564
C     -3.3583325538     1.7325419038     0.5055413266
C     -2.7386958131     2.6138353458     -0.3755499316
C     -0.485863291     1.3317648437     2.7438655794
C     0.8986898287     1.6959618804     2.5467684302
C     -1.5282726523     2.104777862     2.1487264374
C     2.475560636     2.707496203     0.9493525796
C     2.510151408     3.3165386082     -0.3541558277
C     1.4382423127     4.0267672267     -0.832353465
C     1.2855121503     2.8533234881     1.7837764676
C     -0.8516099247     4.029733548     -0.7477068992
C     -1.8064279776     3.5295336503     0.133962764
C     -1.1661968433     3.2753547779     1.4270828402
C     0.3471329238     4.3140213196     0.0035127054
C     0.2257252378     3.7061090552     1.3007811171


