60

 C     0.2395770741     4.4229990459     -0.3587229893
C     1.1921644839     4.0810564237     0.5769732468
C     0.508790413     3.5256624257     1.7763076296
C     -1.0831322926     4.1627493088     0.2544072223
C     -0.8861795367     3.4934657606     1.5385474672
C     -1.8855900987     3.5992595013     -0.706481599
C     0.2483139222     3.7893952679     -1.668920579
C     -1.095439769     3.3539452491     -1.9267693781
C     1.3008862697     2.9174037795     -1.9905364516
C     2.2979537013     3.2343328813     0.2613134862
C     2.3901027298     2.7103956007     -1.0525003544
C     1.2253344585     2.3990488337     2.206373729
C     2.4248312483     2.301355514     1.36945184
C     0.5392050923     1.2123918811     2.6355666159
C     -1.6153845641     2.3102753806     1.8583349698
C     -0.9137928797     1.2331284485     2.5817787924
C     -2.6575059263     2.4384688103     -0.4075459331
C     -2.6776281186     1.9035412123     0.921794025
C     -1.379802601     2.0415058831     -2.3219793136
C     -2.4810673212     1.5319252215     -1.5025903674
C     1.0081211472     1.6079380462     -2.5778342313
C     -0.3266264166     1.1190067311     -2.6961269239
C     2.8880316406     1.3660119083     -1.2394519594
C     2.0590835771     0.6928306465     -2.2252320222
C     2.9919009538     1.0675092708     1.1823516139
C     3.3371749885     0.6197169441     -0.1554852729
C     1.256145185     -0.0698612043     2.5734716629
C     2.5140198042     -0.08876076     1.9079690574
C     0.5063830264     -1.3406408042     2.6375229936
C     -1.5886459173     -0.0189138162     2.7343002589
C     -0.8965589919     -1.2936343135     2.7469203906
C     -3.1894231473     0.5931806915     1.0100272158
C     -2.8151371082     -0.2523539389     2.0781337121
C     -2.7089936743     0.1522980755     -1.3729226809
C     -3.3075907548     -0.2726874566     -0.1553938682
C     -0.5650776101     -0.3109981034     -2.6412013827
C     -1.865661125     -0.7976232091     -2.1112724611
C     1.8773057224     -0.7029876146     -2.224745823
C     0.5656018659     -1.2144094978     -2.6209763912
C     3.2498830149     -0.8100889404     -0.1789536569
C     2.9340469916     -1.2474448748     1.1689901893
C     2.694755848     -1.5064243319     -1.29417274
C     1.0472527368     -2.5492593274     2.076875401
C     2.3203641082     -2.481520214     1.3584349321
C     0.2266725833     -3.5897379343     1.4866915369
C     -1.7465064267     -2.3207944355     2.1119700385
C     -2.8969413375     -1.6418609478     1.6746757874
C     -3.2208973271     -1.6568006101     0.2852244541
C     -1.1912532992     -3.3855560497     1.3332406768
C     -2.0379933243     -2.1623452628     -1.8078845615
C     -2.6399761345     -2.5985106622     -0.5405181932
C     -1.7714474076     -3.6280266307     0.0170474641
C     0.3150065979     -2.6230423036     -2.4402345222
C     -1.0105541327     -3.0852330402     -2.0962859993
C     -0.9291887934     -4.0728914848     -1.0538308354
C     2.3299959977     -2.8670894271     -1.057137188
C     2.2402433133     -3.3605323373     0.2737075161
C     0.9870740921     -4.1413368203     0.4048988048
C     1.22465318     -3.4529315186     -1.7634515556
C     0.443120268     -4.3365006714     -0.854143496


