60

 C     -2.7934639464     -3.2905862335     0.8713951678
C     -1.7325377735     -3.9469619507     0.2072214945
C     -0.5466399582     -3.9130653698     1.0214574362
C     -2.1928241608     -2.5890636879     1.9841612575
C     -0.8070054723     -2.9273715992     2.0812031273
C     -2.5448367473     -1.2123705297     1.9222670973
C     -3.2334872428     -2.253278538     -0.0121541537
C     -3.2765229559     -1.0099103916     0.6817861865
C     -1.6337119394     -3.4589296285     -1.1732415438
C     -2.5241495907     -2.3203482288     -1.2717485763
C     -0.3791411948     -3.3998632878     -1.7635393605
C     0.6896624612     -3.9298937074     0.3792422604
C     0.7523907625     -3.8978045544     -1.0510769575
C     1.784738206     -3.1172884956     0.9095201244
C     0.1649418134     -1.9297203261     2.404329013
C     1.5420408298     -2.1426313025     1.9287722194
C     -1.6512305668     -0.1973916067     2.3518748624
C     -0.2826413418     -0.5583818104     2.6642838493
C     -2.0075773394     1.157759896     1.9608819824
C     -3.1512723716     0.1935146797     -0.0169205829
C     -2.845656081     1.372534415     0.78016401
C     -2.1197985729     -1.1126633559     -1.8963904904
C     -2.697792428     0.1248048105     -1.3983027765
C     0.0492576284     -2.16251466     -2.4438777988
C     -0.7868946777     -1.0286151983     -2.5186003601
C     1.8751818816     -3.0659086485     -1.3863440588
C     2.6173179168     -2.7506012482     -0.217943145
C     1.4767668437     -2.0088959605     -2.2533020909
C     3.3510361241     -1.5608190351     -0.2139526391
C     2.4749186185     -1.0434068306     2.001778313
C     3.4820322389     -0.8715692845     0.9991291122
C     0.6995064546     0.5245693072     2.6896642812
C     2.0530970104     0.2670607315     2.3767587339
C     -1.1048319212     2.2003015027     2.3301943507
C     0.2568433276     1.8746509134     2.5520297043
C     -1.1364633448     3.4780490326     1.6595408764
C     -2.7496792871     2.6014345424     0.0717695694
C     -1.9352835547     3.6916127645     0.5725189655
C     -2.2510894148     1.3288391678     -1.9726471317
C     -2.5053646508     2.5512771741     -1.3287546385
C     -0.1412274746     0.2805899181     -2.7385054759
C     -0.9569067468     1.4233587533     -2.6581234123
C     2.1074829966     -0.7162304366     -2.1878297382
C     3.1966881058     -0.5646636318     -1.2883935851
C     1.3055416831     0.4486951564     -2.5550979713
C     3.6385084837     0.5356651367     0.7215072702
C     2.8365023104     1.2635414978     1.5893399634
C     3.4753641794     0.7256809009     -0.7042674923
C     1.0951105035     2.9226858357     1.8831830998
C     0.2482697419     3.8789846959     1.3443465771
C     2.264538468     2.5070350935     1.1730855623
C     -1.0710158437     4.2082245236     -0.5274546367
C     -1.4091134312     3.4843181218     -1.6496243504
C     -0.4271653347     2.747990101     -2.4076995734
C     0.3005816407     4.2338998003     -0.0566450391
C     1.7806103014     1.7325641112     -2.1648759064
C     2.8120322205     1.8542781965     -1.1508216338
C     2.3551165614     2.8650610155     -0.2122744302
C     0.9161325613     2.8790884859     -2.0496431807
C     1.2931130902     3.6226790571     -0.8433539372


