60

 C     -0.5666470719     -4.7461479954     0.5352597093
C     0.4881801805     -4.6975635996     -0.3414574043
C     1.6542051007     -4.0750363667     0.2541170805
C     -0.1439719414     -4.018808975     1.7409616742
C     1.2417982578     -3.5474355479     1.5209189524
C     -1.0648859511     -2.9981254666     1.9188734485
C     -1.651015506     -4.0104814272     -0.0983587919
C     -2.0693103091     -3.0479864947     0.8048163149
C     0.1411222695     -3.9814637028     -1.5806209782
C     -1.2051459155     -3.5160814179     -1.436846523
C     2.1691951364     -3.1863310637     -0.730891101
C     1.1677830668     -3.0556932461     -1.829372607
C     2.8100069163     -2.0535133274     -0.2978302083
C     1.6438935408     -2.2120910512     1.89360628
C     2.6366637445     -1.6137671261     1.0703053225
C     -0.7149219914     -1.6926675917     2.4506752634
C     0.681636205     -1.2776656951     2.5143717376
C     -1.7144816771     -0.7187076876     2.3282963321
C     -2.6818752797     -1.8503879433     0.354736865
C     -2.7716031535     -0.8172074775     1.2995558209
C     -1.5311373792     -2.2089085404     -1.8418721326
C     -2.5653483243     -1.4940173244     -1.0641958977
C     0.8774906429     -1.7544669329     -2.3523640963
C     -0.5127147062     -1.3706693562     -2.4973038597
C     2.8399783389     -0.8661749862     -1.1124492802
C     1.8798778542     -0.7045075593     -2.1568100375
C     2.8667081153     -0.2033932988     1.0822365045
C     3.1451636025     0.2422246881     -0.2668272847
C     0.9801257416     0.1276640754     2.6206136467
C     2.2036665912     0.6499919284     1.9962417024
C     -1.4411904235     0.660937738     2.5213460855
C     -0.1119685683     1.0997101289     2.7744219429
C     -3.1154609323     0.4997528002     0.9197530775
C     -2.3747881386     1.4436603298     1.7258620527
C     -2.9013928603     -0.197120811     -1.4238878337
C     -3.3543015166     0.7787047079     -0.4452865599
C     -0.8344419996     0.0140314357     -2.8050386764
C     -2.1220973737     0.5248485567     -2.4395907527
C     1.5504669143     0.6380575046     -2.4888762422
C     0.2218689359     0.9794422063     -2.9179056335
C     2.8996316625     1.5826103228     -0.6469258128
C     2.1672180896     1.7814500302     -1.8598526404
C     2.3525097307     2.0411164951     1.7441417438
C     2.7560654245     2.5210327522     0.4153115984
C     0.1231677642     2.4918967282     2.5619695118
C     1.4429805504     2.9991552047     2.3035665579
C     -2.0147424819     2.7269819927     1.2464600809
C     -0.8378658014     3.3105334423     1.8069838114
C     -2.9979453559     2.0580894383     -0.9228633541
C     -2.2891293347     1.8989218239     -2.186054001
C     -2.3405642353     3.035150284     -0.1396422085
C     0.0297485549     2.3801209932     -2.6190855195
C     1.24047108     2.8839874926     -1.9614238939
C     -1.2186003224     2.8312930236     -2.2025593511
C     -1.321881078     3.6629201218     -0.9861988153
C     2.0224538447     3.7192211414     0.1967323972
C     1.3206568192     4.0811129824     1.3936431085
C     -0.0533810005     4.2077160876     1.0295849966
C     1.1522562605     3.8429484144     -0.9539147062
C     -0.1841802067     4.2011373413     -0.4190573164


