60

 C     -0.224904346     -4.5119568985     1.0407660262
C     -0.0348252891     -4.6839999729     -0.3966151836
C     1.1960186306     -3.9891674652     -0.7473098164
C     0.8495484788     -3.7446444253     1.520942035
C     1.7917908083     -3.4841097638     0.4401574436
C     0.36094133     -2.5992376175     2.278260716
C     -1.409625712     -3.7270815657     1.285030607
C     -1.0827499086     -2.5960097058     2.1438807885
C     -1.0383081327     -3.9179302326     -0.995647068
C     -1.9775667409     -3.4136270916     0.0183147476
C     0.9546528612     -3.0189232025     -1.7974922891
C     -0.4763172047     -2.9393745632     -1.9436523679
C     1.7345246545     -1.8605083609     -1.8967133817
C     2.4994063738     -2.2658193133     0.41321631
C     2.7716474432     -1.6650604379     -0.8873498207
C     1.0704686277     -1.3984176383     2.2870878275
C     2.3381773934     -1.3403013659     1.530741139
C     0.3480419165     -0.1419957651     2.5369492606
C     -1.75454826     -1.3812346735     2.0047390186
C     -1.0836588176     -0.1334283115     2.3915478632
C     -2.5955447773     -2.183828213     -0.1950732636
C     -2.7835917014     -1.3045670748     0.9581304778
C     -1.1119425376     -1.7135119451     -2.1520269655
C     -2.3980254111     -1.4969623221     -1.4793357636
C     1.1136052888     -0.6545972724     -2.4635075605
C     -0.3109476901     -0.5358468499     -2.5273561623
C     1.8881179199     0.5540313873     -2.4553363784
C     3.491340629     -0.4618165405     -0.8984045364
C     3.1421463835     0.5804799247     -1.8298871232
C     3.0115343865     -0.1138040502     1.4634011216
C     3.7832949102     0.2045736409     0.3196401224
C     1.0967920576     1.1175807013     2.4813017987
C     2.4329995153     1.1243560189     1.9950555987
C     0.3645394648     2.3497301138     2.3809200647
C     -1.8028058751     1.131593863     2.1774813398
C     -1.0698986315     2.3460584534     2.1965448761
C     -3.4533318245     -0.1094072449     0.7365934472
C     -3.0439693371     1.130475421     1.4389848067
C     -3.0203724946     -0.2776697806     -1.6417896764
C     -3.8490161028     0.2410596331     -0.5866866046
C     -0.930806101     0.7976275027     -2.5034641626
C     -2.3100921862     0.8806344502     -2.2352817135
C     1.2737953347     1.8718826147     -2.3176767995
C     -0.1089747509     2.0150559452     -2.2650106739
C     3.3351661336     1.8862694425     -1.2095818742
C     3.6981286372     1.6515532997     0.1191559396
C     2.9303632475     2.2190002482     1.1808521298
C     2.1924427253     2.7000357477     -1.510757185
C     0.9050895426     3.4384697248     1.6361159238
C     2.074862369     3.2991236747     0.8711170332
C     1.6695021949     3.5228650823     -0.5253837354
C     -1.3997248212     3.4303349995     1.261333069
C     -0.653397196     3.1422185717     -1.4572205093
C     -0.1712741284     3.9600649615     0.8106547869
C     0.2390254693     3.8060010611     -0.5343315424
C     -3.3787077799     2.2173097927     0.5932952261
C     -3.8036832461     1.6596186944     -0.6622452543
C     -2.8658613802     2.0620379329     -1.6389636832
C     -2.4022053341     3.2353893792     0.3231864726
C     -2.0112869097     3.0894075817     -1.0812970224


