60

 C     -0.7886646498     -4.1262644366     -0.3980826597
C     -1.8438882238     -3.6150437081     0.2844297999
C     -1.3937686479     -3.2377605334     1.6509269024
C     0.3611935345     -4.1779702504     0.5547200486
C     0.0027872857     -3.425288033     1.7554948835
C     1.4599481976     -3.8114429783     -0.1559676536
C     -0.3429803035     -3.4721886173     -1.633857643
C     1.0578032013     -3.4191151168     -1.5407267275
C     -1.0439631436     -2.3399869518     -2.1608304245
C     -2.6341872449     -2.5427204551     -0.2377239905
C     -2.3281117165     -1.9839435371     -1.5259765134
C     -2.008871785     -2.0354652782     1.9710366956
C     -2.8848571101     -1.6479830388     0.851290858
C     -1.2807471703     -1.0323561155     2.675984829
C     0.8301190856     -2.3307514746     2.2198254339
C     0.1684584254     -1.1409934464     2.7743326674
C     2.397357892     -2.8565534482     0.3333912818
C     2.143208373     -2.163773296     1.5787719143
C     1.8139618779     -2.2887018059     -1.8852065781
C     2.7904207375     -2.0911247009     -0.8196384996
C     -0.2321805559     -1.2457559155     -2.7386664484
C     1.1982318912     -1.1571746259     -2.5064115752
C     -0.9022385875     -0.0224985351     -3.0673747099
C     -2.8567795372     -0.6871877311     -1.7559450755
C     -2.2462377563     0.161838981     -2.7242994727
C     -3.2205872751     -0.2776797187     0.6352659101
C     -3.3356077042     0.1636926862     -0.706108913
C     -1.9035118586     0.2546296517     2.6576691812
C     -2.8264910895     0.6412612134     1.6459604631
C     -1.1600864217     1.4222433041     3.0012387407
C     0.9270182258     0.1309925613     2.8918242043
C     0.2222182951     1.4027286324     2.9939923887
C     2.8300692076     -0.9252298625     1.728215332
C     2.2266437425     0.2122116339     2.3872636726
C     3.3723844782     -0.8456391384     -0.664555005
C     3.5894939491     -0.3915360272     0.6543638897
C     1.8581185879     0.1699686408     -2.3644526236
C     2.9745258205     0.2725427341     -1.5028549981
C     -0.2401708944     1.2916491832     -3.0330357582
C     1.1082047232     1.4102098632     -2.6383937648
C     -2.4356079529     1.5416646064     -2.3408056006
C     -3.0092428729     1.5608431312     -1.0639470052
C     -1.2376403431     2.2660378762     -2.6131606961
C     -2.5653149497     2.0694165585     1.3130523003
C     -1.6392076341     2.5598799501     2.229849253
C     -2.5489751285     2.507023327     -0.068990835
C     0.6736939009     2.6404890831     2.3048320904
C     -0.5064248232     3.3231401504     1.8114621349
C     2.6992809922     1.4557463599     1.717773342
C     3.496232043     1.0464432069     0.652895841
C     3.2058952813     1.4819457779     -0.6961885856
C     1.873643162     2.6269034487     1.5645467844
C     1.4841750173     2.6394805053     -1.9660251745
C     2.4566587127     2.6090621565     -0.8796743804
C     1.9000465799     3.3114193633     0.2861347224
C     -0.8834519967     3.3131980545     -1.7578893129
C     -1.5374007298     3.4397862093     -0.4482398813
C     -0.5079211185     3.8705701896     0.5159460652
C     0.4959099292     3.5593651864     -1.5708000854
C     0.7274158753     3.9357441506     -0.1766610391


