60

 C     1.2691832337     4.429501477     0.999615127
C     1.6255836435     4.4711709186     -0.3451648237
C     0.413253806     4.3649953334     -1.1381035637
C     -0.1623280012     4.3663226974     1.1555497202
C     -0.712276765     4.4211510882     -0.1961685191
C     -0.4214278057     3.2099812878     1.9345875977
C     1.9119183094     3.3050148739     1.6724672282
C     0.8729041109     2.5414147446     2.2503278798
C     2.4840481394     3.331366958     -0.598353021
C     2.7156644879     2.6479379783     0.6842578773
C     0.5456144635     3.1925258386     -1.9236621419
C     1.8522180693     2.5813714506     -1.6135122684
C     -0.5556293703     2.3085713614     -2.2160115425
C     -1.7910470092     3.6259812743     -0.4602014843
C     -1.8059460855     2.7462178294     -1.6524110986
C     -1.5692679012     2.3964474464     1.7078138035
C     -2.3918463146     2.8182625107     0.6020437889
C     -1.5580846575     0.9816460482     2.084509071
C     0.93676564     1.1208392548     2.3128001431
C     -0.282547872     0.3338001566     2.4317683605
C     2.7833201001     1.2624359467     0.6844962437
C     2.0842708777     0.4825795805     1.6999570276
C     2.007730882     1.1782609567     -1.6829381985
C     2.820870676     0.6116445756     -0.6223385306
C     -0.3458772344     0.8762810063     -2.4546581581
C     1.0161066612     0.3165856848     -2.2865314221
C     -1.4448300248     -0.0595412542     -2.3325984291
C     -2.810303565     1.8078743562     -1.460284234
C     -3.2280395879     1.8729882479     -0.0246883286
C     -2.6838000717     0.4670734005     -1.806466908
C     -2.6329368461     0.1374559547     1.6025332203
C     -3.4039691091     0.5989842359     0.444638445
C     -3.3712117435     -0.2748777436     -0.7544987892
C     -2.5286637687     -1.2545535672     1.7452079051
C     -0.1647329042     -1.1163898671     2.4511519562
C     -1.3465119715     -1.8791499609     2.2438199513
C     2.2002598338     -0.9496415313     1.6611453744
C     1.1349847457     -1.7875508457     2.1843694522
C     3.0230519155     -0.7328129957     -0.6285012539
C     3.029865222     -1.4905252361     0.6193691843
C     1.2372262562     -1.1148114802     -2.2695938673
C     2.4582541356     -1.5760955325     -1.6480479239
C     -1.225056169     -1.5110913554     -2.1905319073
C     0.121683435     -2.0709832323     -2.3070536502
C     -3.1720497553     -1.5970961027     -0.6277187664
C     -3.0610092251     -2.1546112896     0.712117439
C     -2.1967777424     -2.2755572799     -1.4683922184
C     -1.2949042065     -3.2319334971     1.6806503275
C     -2.3227155524     -3.3174185505     0.6506123899
C     -1.8323722939     -3.4642724387     -0.7425037703
C     1.1526497823     -3.1830084473     1.8436466724
C     -0.0955846882     -3.8541590431     1.4827578073
C     2.9860554199     -2.841664064     0.2646780317
C     2.6317743331     -2.9063122594     -1.203833763
C     2.1371799224     -3.7111246044     0.9333024684
C     0.3431520199     -3.4203407813     -1.8563786291
C     -0.6190484724     -4.0584455288     -0.97318846
C     0.1285710577     -4.5688431738     0.1979088177
C     1.6406028312     -3.8502051452     -1.3688493437
C     1.4660327034     -4.5536679658     -0.0849184962


