60

 C     2.0841558683     -3.5373464286     -0.0160365761
C     0.90834975     -3.9778735303     -0.6011790783
C     -0.1355470178     -3.9988840665     0.4236659304
C     1.7739297312     -3.1822466976     1.3760421024
C     0.3848785785     -3.3856146195     1.6146182538
C     2.3492646265     -1.9393321368     1.6373460403
C     2.8360290166     -2.4576596581     -0.5880709844
C     3.1541542321     -1.5299283497     0.4769673208
C     2.425950029     -1.9292517979     -1.8197362403
C     0.3712617788     -3.3251353393     -1.7650651862
C     1.1591161144     -2.3529842641     -2.3950254324
C     -1.3337242692     -3.5447854946     -0.1569418518
C     -1.0404017466     -3.0501461562     -1.5118833117
C     -2.2381882093     -2.8705579423     0.6500467688
C     -0.4044275984     -2.3737577015     2.2849006092
C     -1.7848463997     -2.3586305126     1.9320111756
C     1.6236300137     -0.9370117784     2.3958314798
C     0.2183923854     -1.1096701674     2.7029964411
C     2.1873810069     0.360740293     2.3323915571
C     3.4087246601     -0.171971359     0.2345636062
C     3.1702233421     0.6990069881     1.3562518246
C     2.5701328305     -0.5081636877     -2.0631429779
C     3.1798968771     0.3681088395     -1.12071653
C     0.5192563693     -1.1836421776     -2.9401716678
C     1.4374320351     -0.0685637998     -2.8309331875
C     -1.6861091363     -1.8895926155     -1.9956602103
C     -0.8774926879     -0.9702444494     -2.821287593
C     -3.1069080018     -1.8726493994     0.0745126721
C     -2.8302439137     -1.3467043168     -1.2125888051
C     -2.5680309246     -1.209394858     2.2051065702
C     -3.4645603491     -0.962378305     1.1383285804
C     -0.6144464984     0.1141491278     2.8963832759
C     -2.0081670797     0.0210079622     2.6688563862
C     1.4000998096     1.5651587401     2.6412697668
C     -0.0228154951     1.448640849     2.7734773838
C     3.0703914842     2.1161946357     1.1655098399
C     1.9917005651     2.6608217241     2.0102077368
C     2.8573519427     1.764169397     -1.2440048888
C     2.9459799851     2.6420488845     -0.0927006294
C     0.9684105231     1.2761285692     -2.7488875894
C     1.7317155587     2.2017372586     -1.9838908388
C     -1.3154845651     0.3875510414     -2.9605517491
C     -0.4263895082     1.4928421788     -2.8857623688
C     -3.2316183694     0.0342872732     -1.4270953344
C     -2.5416593643     0.803660513     -2.3514623571
C     -3.5801703079     0.4458793905     0.969775483
C     -2.746830731     1.0856821343     2.0001404358
C     -3.5940373586     0.9523664752     -0.3161267563
C     -0.7869127011     2.5209321013     2.205766578
C     -2.1269573075     2.284357042     1.7223761984
C     1.2108851337     3.5677081996     1.2171265614
C     1.8200092237     3.587370319     -0.1006492519
C     1.0544329997     3.2968119449     -1.219323514
C     -0.1722523528     3.4896895194     1.3173613248
C     -1.1077166419     2.5931543732     -2.1401025579
C     -2.4155716088     2.1870081277     -1.8912594562
C     -2.9860993799     2.251809454     -0.586891553
C     -2.2726550707     2.9190754238     0.4177795655
C     -0.3892729321     3.3651462044     -1.1699127744
C     -1.0035988443     3.5408765247     0.1154497828


