60

 C     1.4062814274     -3.9410874245     1.3149778525
C     1.5738722596     -3.8889860652     -0.1154473397
C     2.4698177445     -2.8435279032     -0.4449080015
C     2.061341107     -2.8215252673     1.8754204721
C     2.7769215673     -2.1693947481     0.8209603273
C     1.0528625604     -1.9994543055     2.5270071389
C     0.0054394291     -3.8044975567     1.5450214929
C     -0.2335194902     -2.6534635227     2.3647006591
C     0.2719841639     -3.96524079     -0.7585749526
C     -0.7330065518     -3.9725832111     0.3204319706
C     0.0341117394     -3.18482092     -1.8845331175
C     2.2472492764     -2.0355443861     -1.608450326
C     1.0416225968     -2.2340554615     -2.3606547399
C     2.7825094161     -0.7278943463     -1.6007478318
C     3.0103834309     -0.777453703     0.8700593198
C     3.3044136271     -0.1360387855     -0.3616067548
C     1.1466205086     -0.5853109372     2.5648321639
C     2.3249203751     0.0199525514     1.906135345
C     -0.0680926486     0.1934931207     2.7549717227
C     -1.4109828213     -1.8831270398     2.2090590187
C     -1.3624360558     -0.4708145424     2.5841279578
C     -1.9042217021     -3.2430173106     0.1758876989
C     -2.3386888671     -2.3107772678     1.1980626295
C     -1.2727941424     -2.5867723616     -2.1058772795
C     -2.2580884665     -2.6495637434     -1.115001067
C     0.3673347881     -1.111605674     -2.9303360646
C     -1.0677407836     -1.3367981322     -2.8055604009
C     2.2024319959     0.3476329926     -2.3335615872
C     0.900507394     0.2121760424     -2.8944910004
C     3.2966096514     1.2786638393     -0.4789920539
C     2.6273999526     1.6026566605     -1.7252841297
C     2.4030506173     1.403451303     1.8041916803
C     3.0296650729     2.0557056591     0.6714088084
C     0.0223549527     1.6568313215     2.6378319565
C     1.2886366007     2.2528946243     2.2570339227
C     -1.1391719972     2.4145511335     2.3362438243
C     -2.4808835417     0.3289724584     2.2135059267
C     -2.3745441965     1.7338185578     2.1546998418
C     -3.1977448436     -1.3417845377     0.5676008343
C     -3.1113513649     -1.5149592754     -0.8776867301
C     -3.3535640905     -0.0859956201     1.1145933671
C     -1.938587934     -0.2718174667     -2.6322901197
C     -3.0157390577     -0.3703513937     -1.6800814126
C     -0.0288681229     1.3579393326     -2.7831029061
C     -1.4310435422     1.0921751528     -2.6012809796
C     1.8246450569     2.7343546364     -1.8146518411
C     0.4441587068     2.5813230828     -2.260880266
C     2.3752940674     3.3059609781     0.5045952484
C     1.3307274067     3.4600422252     1.5502285952
C     1.8136652528     3.6591245877     -0.7143272781
C     -1.0909797803     3.4862570506     1.3347182514
C     -0.4089735146     3.4267330696     -1.4131906599
C     0.1449157809     3.9821810995     0.9357301514
C     0.4266896201     4.0611028897     -0.4750291853
C     -2.9732518438     2.2027446036     0.9428209871
C     -3.5066462084     1.0804528338     0.2468886712
C     -3.2091598414     0.9454481242     -1.1125224222
C     -2.2614311216     1.873346099     -1.7346547223
C     -2.1081006293     3.1707593802     0.350291465
C     -1.728824987     2.9975186892     -1.0303138309


