60

 C     2.2412895324     -3.6146376781     0.6015392484
C     3.1851232789     -2.5514011245     0.5442209639
C     2.9201208065     -1.6006126143     1.5798471242
C     1.3020537284     -3.2931162572     1.5870281634
C     1.6412343098     -1.9950440687     2.1669006086
C     -0.0090115192     -3.4362418496     1.0388675591
C     1.5069239133     -3.6102332949     -0.6640177303
C     0.1206955089     -3.6426758652     -0.3965339436
C     3.2349996348     -2.06323434     -0.8068286047
C     2.0294828583     -2.5792541869     -1.4948782608
C     3.6232782846     -0.7744749563     -0.998498632
C     3.2575332147     -0.2429443571     1.3827206674
C     3.9292654138     0.0676556871     0.1426401975
C     2.3896450189     0.7808810576     1.9822352439
C     0.6407591586     -1.0320400342     2.4303303184
C     1.0250792236     0.3927584484     2.4142080352
C     -1.058905862     -2.6533401029     1.5277222479
C     -0.785903628     -1.4231237035     2.266823994
C     -2.232642672     -2.7357006854     0.7143093735
C     -0.7869866573     -2.9824299806     -1.2739902989
C     -2.075919403     -2.8155604644     -0.7499893696
C     1.1607924975     -1.6666381604     -2.198746029
C     -0.2646859093     -1.9647587039     -2.1961604671
C     2.9291576507     0.0760166972     -1.9862086614
C     1.6079369493     -0.2880186781     -2.4197769526
C     3.9008177616     1.3937683792     -0.3548888122
C     3.2291557888     1.3943563392     -1.6768814718
C     2.6454604219     2.1420912683     1.5924442966
C     3.4208350647     2.4344397893     0.3851825326
C     1.5739266818     3.0541508426     1.5892617258
C     -0.041670665     1.3728574336     2.4095545824
C     0.2816667845     2.7019867994     1.9600192901
C     -1.84439828     -0.4430974877     2.3362484149
C     -1.4606761068     0.983046484     2.3567798923
C     -3.3222867198     -1.9482474325     1.0079671835
C     -3.1758698232     -0.8016990865     1.857297141
C     -3.0408673709     -1.9135478367     -1.3199158876
C     -3.9501975723     -1.5250447274     -0.2598154386
C     -1.162881505     -0.937728293     -2.5753821423
C     -2.5627115808     -0.9349207629     -2.1989471272
C     0.6370827807     0.8006619344     -2.5359880424
C     -0.720602229     0.4302067923     -2.6619571573
C     2.2748593278     2.4666560894     -1.6936148153
C     2.558046102     3.2452512211     -0.5078810426
C     1.510018092     3.7045135879     0.2460074415
C     0.931356417     2.1719933331     -2.0652084137
C     -0.6094584159     3.3441233074     0.9925118519
C     0.1796907586     3.6281588595     -0.2108233917
C     -0.1579155616     2.9080249608     -1.3953830379
C     -2.3847572318     1.9169746623     1.7954046427
C     -1.8816196435     2.9450603695     0.8961579896
C     -4.0348809916     0.1923139332     1.2699607272
C     -4.3798021273     -0.2355978945     -0.1184815758
C     -3.5985442795     1.4864711735     1.1908259331
C     -2.9857481628     0.4579902001     -2.0321821356
C     -1.823100545     1.292251397     -2.2732948315
C     -1.5446651566     2.4499144857     -1.5079911037
C     -2.4726581043     2.7296583365     -0.4306811175
C     -3.9202936675     0.8024495987     -1.0339783816
C     -3.5986254734     1.9386807589     -0.2260928143


