60

 C     -1.2003606778     -4.1784055235     -0.4873028162
C     -0.3909803101     -4.1730019876     0.6467292199
C     1.0018458488     -4.041547362     0.2267866646
C     -0.3443158129     -3.7399884215     -1.6164323576
C     1.004004897     -3.6218602223     -1.1375060229
C     -0.9735737756     -2.6353719529     -2.2183745041
C     -2.3583130563     -3.397587138     -0.4743152342
C     -2.299039287     -2.5237619814     -1.6494879524
C     -2.6936025455     -2.5699712848     0.6269270476
C     -0.608117167     -3.2371784808     1.7207179881
C     -1.757294743     -2.3889529536     1.7257661986
C     1.6949058235     -3.2923414676     1.1907403838
C     0.6863006777     -2.693664287     2.0777522583
C     2.7742008344     -2.5245651541     0.7600217068
C     1.8101127976     -2.4977676239     -1.5400436035
C     2.8554787221     -2.1320733899     -0.6471551037
C     -0.2624340729     -1.415516421     -2.53888883
C     1.182108574     -1.4243367415     -2.3479666058
C     -0.9961858215     -0.1526791458     -2.5159043405
C     -2.8784887579     -1.2967494362     -1.373319168
C     -3.2952418564     -1.3784709782     0.0409854003
C     -2.3102354574     -0.0829644922     -1.8626682442
C     -3.4075025211     -0.249097123     0.7657771595
C     -1.6329400641     -1.0499732238     2.3230954834
C     -2.6813858709     -0.1243894622     2.0330006708
C     0.8447759956     -1.3456704042     2.5334645387
C     -0.3348942458     -0.4856086706     2.678133065
C     3.1125425934     -1.3802038089     1.5192993284
C     2.1339593354     -0.7522403161     2.3248964569
C     3.448356236     -0.8010955614     -0.6860181757
C     3.6566794759     -0.366624585     0.6490211864
C     1.8585175968     -0.1824842305     -2.4372155754
C     2.9896539411     0.1323855623     -1.6168843209
C     -0.2592146051     1.0884544303     -2.6831982754
C     1.154349236     1.0517323794     -2.6935936231
C     -0.8843168287     2.3555729427     -2.3263081697
C     -2.7654774804     1.1494031489     -1.2135947184
C     -3.3896230115     1.0501912822     0.0956358262
C     -2.1099604253     2.3620118197     -1.4978354937
C     -2.5099613459     1.2443890354     2.2171465068
C     -3.0756243119     1.9930817001     1.0786063453
C     -0.1404506998     0.9724215347     2.7013126069
C     -1.2664450618     1.8287812188     2.5312209118
C     2.2649314726     0.6998992742     2.1211469046
C     3.219970857     0.9191828713     1.0645422243
C     1.1688010292     1.550719283     2.332136305
C     2.9238590962     1.5492172518     -1.2787955307
C     1.9319428249     2.1472557925     -2.1223456661
C     2.9971638149     1.9436595095     0.102416251
C     -0.1177827239     3.4729972212     -2.0070574937
C     1.2937096106     3.3358128535     -1.7453685072
C     -1.9833140071     3.4202986515     -0.5292524357
C     -2.2781807522     3.1280644966     0.8312817045
C     -1.1873806277     3.1051860665     1.8014840893
C     -0.7598797656     4.1007288108     -0.8283196979
C     1.2297910607     2.8258175317     1.6636710425
C     2.1484414484     3.0140520978     0.5301231124
C     1.5009357003     3.8247581269     -0.416946892
C     0.0565868936     3.6192137432     1.4370638907
C     0.2085911963     4.2508554949     0.1411968801


