60

 C     -1.8302978122     -3.7389190728     0.521505591
C     -2.7569339724     -3.0218388852     -0.207159597
C     -3.2493922547     -1.9191029752     0.634249737
C     -1.6410324433     -3.0116628347     1.804046861
C     -2.4750040878     -1.8491449998     1.8248873419
C     -0.2859053572     -2.9370545215     2.0731031117
C     -0.5400382278     -4.0259531194     -0.0089393179
C     0.4244266696     -3.7436838383     1.044648548
C     -0.2358423602     -3.6025614621     -1.3275325794
C     -2.4182094063     -2.4456967226     -1.4768164742
C     -1.167073822     -2.732279747     -2.0259508416
C     -3.4320601425     -0.7838377707     -0.1638994023
C     -2.8745131034     -1.062746042     -1.4779842812
C     -3.3243185209     0.4955593517     0.4264289651
C     -1.953032019     -0.572749691     2.2437183011
C     -2.6227479253     0.6084875251     1.7115169734
C     0.2824599408     -1.6864340994     2.562904137
C     -0.565354784     -0.4840672149     2.6551398196
C     1.6769469125     -1.5431268245     2.3870725164
C     1.7220815731     -3.4133766483     0.7334252593
C     2.4082835595     -2.4707868687     1.5677425413
C     1.1056579668     -3.1372346681     -1.6318064259
C     2.1059009051     -3.134835084     -0.6586614038
C     -0.3970168321     -1.6649500051     -2.6767790626
C     0.9955033917     -1.9954715044     -2.5303021907
C     -2.1554167145     -0.0339292126     -2.137479071
C     -0.8340808581     -0.315640243     -2.7172766726
C     -3.193444709     1.551379417     -0.5148038751
C     -2.4608543015     1.2880087599     -1.7236869792
C     -2.8252089551     2.8525124007     -0.0815736261
C     -2.0626730881     1.8692069674     2.0224604335
C     -2.3172847514     3.0200940124     1.1901752761
C     0.0879897468     0.8304807067     2.6849957121
C     -0.7076129906     1.9778669877     2.4893206895
C     2.2885548578     -0.2303320854     2.2261492494
C     1.5428061192     0.9494268923     2.4143266065
C     3.2821437919     -1.7007986448     0.7642968769
C     3.0814262704     -2.0508074711     -0.6212811279
C     3.282328361     -0.341426711     1.1905431731
C     1.9368341307     -0.9779316291     -2.5045872624
C     3.0281607536     -1.0085043031     -1.5480754455
C     0.1692609421     0.7633949574     -2.7605845084
C     1.5294890987     0.3886321284     -2.6918158163
C     -1.5494142529     2.4164639533     -1.9460797182
C     -1.8580820823     3.4288904583     -1.0245615528
C     -0.1812525301     2.1496067183     -2.353177597
C     -1.1059213847     3.8450039287     1.120078993
C     -0.1384577227     3.2389759599     1.9387211668
C     -0.8240245552     4.0827067817     -0.2761899011
C     2.0513584578     2.1274929377     1.7795391321
C     1.2132154752     3.2752449927     1.5469401611
C     3.4356565155     0.7107299551     0.2411625235
C     3.2913322884     0.3621894733     -1.1483296903
C     2.4952357469     1.2196784998     -1.987618515
C     2.977874673     1.9947034446     0.6556087915
C     0.8111554818     3.0205907449     -1.8376539753
C     0.4974221644     3.943327001     -0.7341424637
C     1.5189926938     3.7643077508     0.2376686454
C     2.1613823462     2.5088527022     -1.5903202037
C     2.5786214334     2.9530698908     -0.3073079563


