60

 C     2.6154515188     -2.9827829312     -0.4370704524
C     1.5227837703     -3.5023689666     -1.0991835978
C     0.5386799714     -3.9514567432     -0.0912645718
C     2.279823613     -2.977407552     1.0028792079
C     0.9512775642     -3.4763250099     1.1839545759
C     2.6984429144     -1.7757628407     1.5485652512
C     3.1265245853     -1.7091360076     -0.7696923915
C     3.4693039058     -1.0771977358     0.4974010951
C     2.5248109965     -0.9192647852     -1.802853963
C     0.83433933     -2.7436336264     -2.0758101893
C     1.3005486531     -1.4363928394     -2.4348705459
C     -0.7557113343     -3.7362508247     -0.6000924821
C     -0.604514173     -3.0045640077     -1.8687623737
C     -1.7580159742     -3.3684210431     0.2918261345
C     0.0077980578     -2.7458260867     1.9983227388
C     -1.3655685935     -2.9449106331     1.646540623
C     1.8086497208     -1.0072665842     2.4108553523
C     0.4127103166     -1.459640623     2.5923636957
C     2.138615162     0.3615808372     2.5440464942
C     3.6404371804     0.2714850175     0.5787074722
C     3.1841496797     0.9494954514     1.752562934
C     2.7464477641     0.5357152237     -1.7363430298
C     3.3730820622     1.1151320196     -0.5925325983
C     1.8619925952     1.3934922177     -2.4740195315
C     0.2777748523     -0.4869306667     -2.9220501805
C     0.5863806853     0.8758747299     -3.0040670119
C     -1.5512833278     -2.0813012311     -2.2246196863
C     -1.1280098361     -0.8185882038     -2.8014351321
C     -2.8491386674     -2.5130212982     -0.1585490804
C     -2.7326061014     -1.8472724538     -1.4055252881
C     -2.3180860121     -1.9947817593     2.0419462851
C     -3.2830912687     -1.7578409264     0.9501126878
C     -0.5986087834     -0.4467636173     2.8658605822
C     -1.970265352     -0.7675726603     2.6124482219
C     1.1029885895     1.3735403946     2.6981012471
C     -0.2479534995     0.9933501799     2.840662347
C     2.7469926143     2.2313494246     1.3431618035
C     2.9435745349     2.4075967604     -0.0763103094
C     1.4951656005     2.5429800432     1.9453837635
C     1.6325517912     2.7123634277     -2.0707101994
C     2.0246146815     3.1807147291     -0.7787896564
C     -0.4246774088     1.8930805792     -2.8283338855
C     0.2278554415     3.022988908     -2.2721429334
C     -2.0946533157     0.1516098205     -2.442943999
C     -3.0535089473     -0.4611953698     -1.5130595133
C     -1.7537024235     1.5439696123     -2.384071476
C     -3.5654981349     -0.3891062282     0.8822763649
C     -2.8989503263     0.222926843     2.0433129789
C     -3.5260553622     0.2987007493     -0.3947965161
C     -1.2168795708     1.9576411105     2.4089465416
C     -2.5623774875     1.5426994668     1.9975687072
C     0.5297329414     3.3173377315     1.2239697754
C     0.8133593017     3.6854969492     -0.124592467
C     -0.2724757718     3.6547277004     -1.1188064447
C     -0.8466134258     3.0854900397     1.5921897997
C     -2.3697465675     2.3414547296     -1.3893511842
C     -3.2264953611     1.7004607993     -0.3694624785
C     -2.9379752863     2.3291566171     0.8580273626
C     -1.608262392     3.3957794397     -0.7352502811
C     -1.8961359907     3.294791403     0.6453696067


