60

 C     1.1699738614     -4.5190520435     -0.2152994739
C     2.1928447846     -3.6489172992     -0.724652252
C     2.8001657624     -2.9961857945     0.35450123
C     0.9453830603     -4.1212179137     1.1907712139
C     1.979623779     -3.2671529718     1.5690936945
C     -0.408898055     -3.6786095928     1.3729533945
C     -0.0082557951     -4.1836939785     -0.8842421871
C     -1.0627846353     -3.9115623848     0.0755735782
C     1.6067249564     -2.7917086093     -1.7636751212
C     0.2322031108     -3.1731844028     -1.9174181757
C     1.9581780358     -1.4273806383     -1.8772586872
C     3.0812545331     -1.6249006565     0.314692304
C     2.8514906844     -0.8502243232     -0.8715275655
C     1.7156586713     -2.0228345411     2.1845474456
C     2.5701270677     -1.0373962566     1.5349908957
C     -0.71882085     -2.4685394127     2.0736465106
C     0.3878468411     -1.6178568577     2.5278220527
C     -2.0123970508     -1.8249254178     1.7734619211
C     -2.1147275434     -3.15014845     -0.3296162228
C     -2.7649198268     -2.2599002092     0.6257296383
C     -0.792193981     -2.2318223996     -2.2396119582
C     -2.0772934407     -2.4569471184     -1.6203328237
C     0.9885818581     -0.5226852614     -2.5023138713
C     -0.4243676912     -0.8698458136     -2.5982801172
C     1.3622229452     0.8306393951     -2.5745360407
C     2.9578951902     0.5669076581     -0.7351898712
C     2.4739210867     1.3427878401     -1.8272581823
C     2.3774851884     0.3386020922     1.6655905492
C     2.9070707138     1.1851999296     0.5970486605
C     0.1834737328     -0.1939978282     2.7547268223
C     1.2541823638     0.7708981605     2.4754514752
C     -2.2228186379     -0.4784656098     2.1855126038
C     -1.1425229671     0.3080953693     2.7391457526
C     -3.095342198     0.4348154271     1.4663905577
C     -3.4894614697     -1.3187187953     -0.1327496229
C     -2.9650461838     -1.3896872414     -1.5016111167
C     -3.6148163277     0.0309376678     0.2259700293
C     -1.419735762     0.2221027052     -2.5177801137
C     -2.6872202977     -0.0812623379     -1.9433037021
C     -3.2756510934     0.8334665759     -0.9562274769
C     0.3826929313     1.9157101351     -2.7119125757
C     -0.9993298897     1.619993445     -2.4775968539
C     2.2773891095     2.7539799856     -1.6938584474
C     0.9574716375     3.1071671298     -2.2567460041
C     2.6765452987     2.5782162852     0.7014772697
C     2.4317802177     3.379927323     -0.485941472
C     0.9566845123     2.1656485493     2.4501546738
C     1.7391783801     3.0320837553     1.6680166036
C     -1.4337997986     1.7063955848     2.4966328753
C     -2.5812224575     1.7737648978     1.614128103
C     -0.4243570955     2.6430679485     2.3963145529
C     -2.7701140959     2.0954379341     -0.803713655
C     -1.7169693805     2.5720413598     -1.6779428804
C     -2.5337749398     2.6555977097     0.5250171605
C     0.2892433597     3.9736656935     -1.334260303
C     1.2296945531     4.2318660329     -0.258025168
C     0.842942035     4.0425195161     1.0491271169
C     -0.5054715637     3.7233493418     1.4240292263
C     -1.0431326331     3.6596701142     -1.0026523068
C     -1.4744844009     3.6242681972     0.4030164368


