60

 C     -2.2306663776     -4.1216473838     -0.0886893454
C     -1.1399794802     -4.595947646     -0.8278093183
C     0.0081708062     -4.5216002257     -0.0039898196
C     -1.7297293064     -3.6871326697     1.2396388672
C     -0.3333830292     -3.9530388324     1.3154088329
C     -2.1915919843     -2.3826861459     1.5146268384
C     -2.7124959841     -2.9472136217     -0.7108398838
C     -2.8848148192     -1.9293777093     0.2734018012
C     -0.8931942587     -3.6389865322     -1.9332651927
C     -1.8967310245     -2.6183861779     -1.8826277034
C     1.0777007234     -3.9182228071     -0.7536934141
C     0.4621369896     -3.2522599306     -1.9453012284
C     2.0587494046     -3.2767164921     -0.0654249841
C     0.5480030717     -3.0068896254     1.9211982346
C     1.8902121043     -2.9600563186     1.375214316
C     -1.3838369981     -1.4425780109     2.2008882911
C     0.0149047732     -1.7621906574     2.4766581894
C     -1.8243398225     -0.0536918435     2.1190846392
C     -2.8168829011     -0.6051015502     -0.0958458358
C     -2.6610176924     0.3493284483     0.9886299226
C     -1.5528907916     -1.2729823941     -2.1348739528
C     -2.3019001826     -0.2301633092     -1.4230166355
C     0.8488042455     -1.92377173     -2.2745420887
C     -0.1975230773     -0.9285664862     -2.5148291982
C     2.7804614057     -2.1764689141     -0.6929792443
C     2.1596967278     -1.465027639     -1.793773256
C     2.6964555512     -1.856995649     1.5919340412
C     3.3644953866     -1.441469693     0.3435916455
C     0.9090826599     -0.6250570443     2.706991001
C     2.2604017624     -0.6770501896     2.246815201
C     -1.0363132237     0.9617298183     2.6786010958
C     0.3760796808     0.6863910792     2.8469884092
C     -1.2166111047     2.3543373984     2.3581236218
C     -2.7885990484     1.6783425053     0.647873809
C     -2.221648111     2.7420302448     1.4478474817
C     -2.0754018389     1.1298859501     -1.6916027184
C     -2.6633769625     2.0863437294     -0.7662097299
C     0.1445032176     0.4786222357     -2.6330704998
C     -0.8749873136     1.5291109638     -2.4460154561
C     2.4569243443     -0.1000245401     -1.8948051566
C     1.5021094658     0.8399430711     -2.4640246807
C     3.4550335462     -0.0375613996     0.3350992663
C     2.8448016568     0.4689278249     1.5627252817
C     3.1682338045     0.6234487808     -0.8634458819
C     1.0711971738     1.8594650069     2.4119145372
C     0.1074677412     2.9322692664     2.2047896117
C     2.2296367056     1.7370799941     1.5812946273
C     0.3434980724     3.9396217677     1.2656195314
C     -2.0236664739     3.8661221265     0.5984442593
C     -2.3183694506     3.4295505473     -0.7995305266
C     -0.7832531615     4.5081132375     0.5515074739
C     -0.4731911351     2.886771935     -2.3781991342
C     -1.2647672682     3.8768678383     -1.6492841069
C     -0.3932009747     4.6560152751     -0.8484933681
C     1.8388775348     2.1534818195     -2.0067651286
C     2.682025533     1.9724447749     -0.8358951416
C     2.3109360588     2.6081249153     0.3871429038
C     1.4272319892     3.729305413     0.2837680141
C     0.9204304711     3.1807161968     -2.0632828251
C     0.9261014887     4.1444711042     -0.9936963896


