60

 C     0.1188559387     -4.6374492911     0.2481619395
C     -1.1398003342     -4.1511707823     0.7965237809
C     -1.8903213119     -3.7164397338     -0.2793118621
C     0.1944033576     -4.2463803697     -1.1778454532
C     -1.060034131     -3.7640637326     -1.5330310611
C     1.3312671657     -3.3966011713     -1.3841433242
C     1.1341044744     -3.9655933416     0.8954351721
C     2.0169711397     -3.3433276127     -0.0806965254
C     -0.846913977     -3.1597272594     1.8494602268
C     0.5718417694     -3.1057603662     1.954330451
C     -1.6143064536     -1.9510431945     1.9868799196
C     -2.5872496049     -2.4910158389     -0.251549195
C     -2.6419461988     -1.708570621     0.9594581421
C     -1.2215272698     -2.5152026553     -2.1632932364
C     -2.3024109432     -1.807462015     -1.4814934239
C     1.2203499048     -2.1786712908     -2.1208967278
C     -0.1076131642     -1.7228108401     -2.5625923602
C     2.2270017261     -1.1376845709     -1.8545271343
C     2.692790236     -2.220956967     0.3100437351
C     2.9701362949     -1.161017843     -0.631544925
C     1.2304713442     -1.9074381893     2.3192977922
C     2.4262296041     -1.5870599301     1.5969764428
C     -1.0116697808     -0.793236106     2.6354649456
C     0.4358693132     -0.8078739864     2.8541062232
C     -1.7059557677     0.5094077504     2.5732361038
C     -3.131668786     -0.4197450731     0.781485249
C     -2.8155102356     0.6464577475     1.6929076494
C     -2.5072867123     -0.415339622     -1.6188056888
C     -3.236694904     0.1740117392     -0.5514965002
C     -0.3539054434     -0.3047521532     -2.836619783
C     -1.5822044943     0.3756427394     -2.4147301697
C     2.0655259699     0.1210815443     -2.4339463293
C     0.7959874634     0.5013710921     -3.0741424516
C     2.6174820193     1.3222359318     -1.8521108423
C     3.219529496     0.0479156499     0.0910859855
C     2.877579077     -0.2381196427     1.4805347946
C     3.0018379927     1.3342542916     -0.4702803722
C     1.1152186428     0.4288427348     3.0207636815
C     2.3087913953     0.7371256734     2.2683955285
C     -0.9802104603     1.7328427385     2.8354296224
C     0.3945027474     1.6480857007     3.0981547554
C     -1.1721058622     2.9625716562     2.0520886931
C     -3.0307505898     1.8771370402     0.989341343
C     -3.2228691832     1.5708235559     -0.3911931979
C     -2.1556257536     2.9968592849     1.0732247671
C     -1.6018717593     1.8375707824     -2.250981897
C     -2.3920398125     2.4099337097     -1.1835863518
C     -1.8442604586     3.4301984269     -0.2927422074
C     0.7261937761     1.8947258068     -3.0988716884
C     1.8803901043     2.4132715301     -2.3955873309
C     -0.4442697764     2.5964765338     -2.6284871757
C     -0.5868465999     3.9634082376     -0.5770487023
C     1.4341592191     3.452642744     -1.5803879028
C     0.0085518683     3.6883184923     -1.8261276904
C     2.5120427731     2.4309095215     0.4057079692
C     2.218097999     2.1216074354     1.772029922
C     1.1168536663     2.7118995399     2.4302104302
C     0.1608812868     3.5093191769     1.7485743838
C     1.6971543455     3.4735073309     -0.1810701394
C     0.4667976573     3.9340578607     0.459832


