60

 C     -0.6405657019     -5.1866909087     1.1907213975
C     0.0655244816     -5.4848142353     -0.0179403508
C     1.4141434733     -5.1243314737     0.0664100251
C     0.2859171363     -4.356457389     1.9929083015
C     1.5327786472     -4.3295748789     1.3222504379
C     -0.3544948854     -3.0948899437     2.2675039641
C     -1.6890358829     -4.3143174371     0.8153293929
C     -1.6390730409     -3.0986638184     1.5820624314
C     -0.5742461271     -4.8038402759     -1.1737342472
C     -1.7404067029     -4.1665693     -0.6623185847
C     1.6360918558     -4.1829041172     -0.9913814204
C     0.4183333867     -3.9916286839     -1.8105213906
C     2.0960680559     -3.0611676744     0.999152639
C     2.2030847581     -3.0052924612     -0.4669568257
C     0.3712081879     -1.8680284392     2.2772519382
C     1.6689987916     -1.8626232945     1.6388344927
C     -0.36941298     -0.6225423744     2.2200794944
C     -2.1755886327     -1.8753939103     1.0767081125
C     -1.6811097448     -0.6236272872     1.6312175735
C     -2.0896701995     -2.917824798     -1.1632465061
C     -2.5841850264     -1.8575132327     -0.2868419224
C     0.0966310693     -2.66985388     -2.2720006743
C     -1.2541481501     -2.2404276489     -2.1319496677
C     2.0681834031     -1.7512268098     -1.1231679155
C     1.0750169088     -1.5681607082     -2.1421383257
C     2.1219254443     -0.6241054784     1.0599595351
C     2.4544651882     -0.611350423     -0.3339410349
C     0.36941298     0.6225423744     2.2200794944
C     1.6811097448     0.6236272872     1.6312175735
C     -0.3712081879     1.8680284392     2.2772519382
C     -2.1219254443     0.6241054784     1.0599595351
C     -1.6689987916     1.8626232945     1.6388344927
C     -2.4597369108     -0.6322068457     -0.9876854175
C     -1.5983518724     -0.8321268877     -2.1161404117
C     -2.4544651882     0.611350423     -0.3339410349
C     0.7048744599     -0.2010137745     -2.460425241
C     -0.7048744599     0.2010137745     -2.460425241
C     2.4597369108     0.6322068457     -0.9876854175
C     1.5983518724     0.8321268877     -2.1161404117
C     2.1755886327     1.8753939103     1.0767081125
C     2.5841850264     1.8575132327     -0.2868419224
C     0.3544948854     3.0948899437     2.2675039641
C     1.6390730409     3.0986638184     1.5820624314
C     -0.2859171363     4.356457389     1.9929083015
C     -2.0960680559     3.0611676744     0.999152639
C     -1.5327786472     4.3295748789     1.3222504379
C     -2.0681834031     1.7512268098     -1.1231679155
C     -1.0750169088     1.5681607082     -2.1421383257
C     -2.2030847581     3.0052924612     -0.4669568257
C     1.2541481501     2.2404276489     -2.1319496677
C     2.0896701995     2.917824798     -1.1632465061
C     -0.0966310693     2.66985388     -2.2720006743
C     1.6890358829     4.3143174371     0.8153293929
C     0.6405657019     5.1866909087     1.1907213975
C     1.7404067029     4.1665693     -0.6623185847
C     -1.4141434733     5.1243314737     0.0664100251
C     -1.6360918558     4.1829041172     -0.9913814204
C     -0.4183333867     3.9916286839     -1.8105213906
C     -0.0655244816     5.4848142353     -0.0179403508
C     0.5742461271     4.8038402759     -1.1737342472


