60

 C     -3.1045729654     -2.3834840122     0.2957998914
C     -2.7375756303     -2.6485087077     -0.9920665648
C     -2.960668802     -1.4186369886     -1.810382857
C     -3.5856413616     -0.9879219117     0.3408708189
C     -3.4292066204     -0.3796319879     -0.9563871372
C     -3.0472602134     -0.3914164554     1.4677801581
C     -2.1775976627     -2.5912546797     1.3772784873
C     -2.2285624266     -1.3942244886     2.1784608081
C     -0.9257445285     -3.2514805703     1.1379558251
C     -1.4593654847     -3.2090430866     -1.3081602554
C     -0.5590451662     -3.5943248674     -0.2549872857
C     -1.8312950421     -1.2464541167     -2.6034065021
C     -0.9848635824     -2.4382045363     -2.4379119479
C     -1.2530461813     0.0621112036     -2.7815720485
C     -2.9081648533     0.9260775924     -1.0761271863
C     -1.9465166655     1.1785277012     -2.1634621985
C     -2.67358427     0.9941301439     1.4238516229
C     -2.7587961193     1.7091340475     0.1553214997
C     -1.7024798635     1.4019599128     2.3861071799
C     -1.1328847701     -0.9808473721     2.9573639265
C     -0.9191424645     0.4464962559     3.0893518873
C     0.1277637851     -2.9182021513     2.0518578336
C     0.002345065     -1.8464178647     2.9872514734
C     1.5421729759     -2.9261728072     1.6367453883
C     0.8386832583     -3.5816364833     -0.6112373102
C     1.8755293562     -3.1760125361     0.33799707
C     0.3662854854     -2.3337913328     -2.6920574532
C     1.2447472856     -3.0568949533     -1.8504067657
C     0.1870785476     0.1645549859     -3.0390848627
C     0.9661952947     -1.0302907677     -3.0033295008
C     0.8783291238     1.4259894006     -2.7660263571
C     -1.3018954576     2.4412377078     -2.1833992205
C     0.0870948812     2.5806922943     -2.5022526758
C     -2.1169378077     2.9769190128     0.0638525109
C     -1.6084126341     3.4415751194     -1.1744914781
C     -0.895075015     2.599921162     2.1605726401
C     -1.1913014875     3.4472397648     1.1124552969
C     0.4311075067     0.9966586868     3.1594556561
C     0.4633270093     2.2908127722     2.5031649159
C     1.3220226312     -1.2610209642     3.1975510566
C     2.2390850618     -1.872291724     2.3521132009
C     1.5261944684     0.1587956371     3.1312166899
C     3.0033258682     -0.8475375727     1.6587622911
C     2.6004835204     0.4310666872     2.1753504739
C     2.8472419706     -2.2667546156     -0.3527901405
C     2.4535982474     -2.2503451057     -1.6786382757
C     2.284251049     -1.029179526     -2.4228719814
C     3.2916583542     -1.0262034502     0.2783063604
C     2.1770441701     1.3927031667     -2.1641203723
C     2.8012218853     0.1470957073     -1.8779549563
C     3.3249814712     0.1524660786     -0.5218512539
C     1.5269402654     2.6448385618     1.6218068577
C     2.5583087304     1.6029714563     1.3605102212
C     2.47008732     2.2702455813     -1.0403390559
C     3.0286403558     1.4520465309     0.0258835034
C     0.6089442942     3.6702208189     -1.6839914443
C     -0.4433857235     4.2429803497     -0.950186447
C     -0.1049517456     4.1092401363     0.4527598029
C     1.6939238285     3.3756797243     -0.7773209003
C     1.2193612781     3.6037972349     0.5990589866


