60

 C     1.6564173587     3.9986425103     -0.1005269851
C     0.429014886     4.2219780685     0.5438597147
C     -0.6023307269     4.0707250435     -0.4548954891
C     1.38262325     3.507273006     -1.4931050185
C     -0.0032542724     3.4728957348     -1.6469187933
C     2.1808502419     2.3385917205     -1.734209989
C     2.5593932421     3.1329931408     0.4650034558
C     3.0306477803     2.212416376     -0.5995393641
C     2.2346441186     2.3284245395     1.6022840014
C     0.0500028659     3.4487164384     1.6968666657
C     0.924111781     2.4218703059     2.2123944596
C     -1.7335864541     3.4903274273     0.1355853811
C     -1.3655640475     3.1453870754     1.5164451046
C     -2.4948236786     2.5870740715     -0.6147201734
C     -0.6311473682     2.3191738088     -2.2707244563
C     -1.9656724131     2.0471379217     -1.8731615325
C     1.6288445764     1.1460246392     -2.3299548312
C     0.2175437014     1.194941833     -2.7183776416
C     2.236102859     -0.1350625458     -1.9927921256
C     3.2881441323     0.9778660465     -0.0474315299
C     2.8005508629     1.0301315077     1.344475782
C     3.0977703633     -0.1903435895     -0.8224947534
C     2.3413034301     -0.14812518     1.9642512205
C     0.3383970925     1.1743195809     2.7484909816
C     1.0934535623     -0.0931962638     2.7238584074
C     -1.9132731117     2.0203839477     2.0813770916
C     -1.0761008469     1.0720857675     2.7963765807
C     -3.2171257831     1.530581701     0.0328396707
C     -2.9499640392     1.2593393907     1.389234482
C     -2.5499705833     0.7450815057     -2.0535174962
C     -3.3499296535     0.4188855556     -0.8926520048
C     -0.4248185224     -0.0364178694     -2.9931921402
C     -1.8122555842     -0.2514033261     -2.6805048984
C     1.5842336491     -1.3948512116     -2.3899200011
C     0.2519705958     -1.3083148942     -2.8754239592
C     1.9682668263     -2.6432823945     -1.769333095
C     3.1819502832     -1.3837099951     -0.05934364
C     2.7634890465     -1.3600294594     1.3482633675
C     2.8252462127     -2.6144524935     -0.6030187432
C     2.1167605016     -2.624799566     1.6117200221
C     2.2530092734     -3.4489736062     0.4338739294
C     0.4029799738     -1.3268550132     2.856889932
C     0.8918178213     -2.5759741054     2.2796489411
C     -1.7511325863     -0.2015883683     2.7502823229
C     -2.894255791     -0.098153586     1.8527715398
C     -1.0316996025     -1.3778487815     2.8226136515
C     -3.387400297     -0.8955955931     -0.4273205151
C     -3.1726658647     -1.1619585169     0.9850724139
C     -1.9791890549     -1.6427862802     -2.2983998153
C     -0.7382291746     -2.3248724777     -2.5453270333
C     -2.7589415593     -1.9647634287     -1.1777537727
C     0.998711079     -3.6597370773     -1.5163533024
C     1.1348321695     -4.0680710289     -0.1150887234
C     -0.3713256084     -3.4265401999     -1.7605620921
C     -0.2586793467     -3.3269794689     1.7551424555
C     -1.4322502475     -2.5504523225     2.0471052378
C     -2.4582891174     -2.4172920743     1.1022674841
C     -2.2602809891     -2.95575968     -0.2355699525
C     -0.1508122616     -3.9974476185     0.5184527121
C     -1.1281149506     -3.707630648     -0.5253128408


