60

 C     -0.9369086933     4.3669145013     1.2285337624
C     0.0136924756     4.5443101383     0.1621445792
C     -0.6017156603     4.2303454993     -1.0736589799
C     -2.0960161325     3.7214013734     0.6580932626
C     -1.914529444     3.673991502     -0.7483596004
C     -2.2923083486     2.4509942365     1.3009141185
C     -0.3480605211     3.4071844945     2.0976319066
C     -1.2166838403     2.2734292999     2.2562014883
C     1.2559366307     3.8640690856     0.505846688
C     1.0200614577     3.1337075256     1.7589708188
C     1.9647470819     3.2091348269     -0.4934169498
C     0.0178608122     3.3257098245     -1.986476391
C     1.3418813816     2.9356973833     -1.7860233797
C     -2.0990898985     2.4689365648     -1.4786211148
C     -0.9330908231     2.2567957251     -2.3060759202
C     -2.7394002482     1.3016334264     0.5849838448
C     -2.6887326488     1.3240346     -0.8647922156
C     -2.6194960914     0.0314557109     1.2614706181
C     -0.6963252454     0.9967010686     2.561989457
C     -1.5989514854     -0.1320068606     2.3157484001
C     1.5691417004     1.8482834032     1.9891499166
C     0.7314273494     0.7981535483     2.5859278431
C     2.771847797     2.0600225882     -0.1582843302
C     2.653711811     1.4186779885     1.1124521067
C     1.7893146772     1.6234643951     -2.2020310216
C     2.8596342112     1.2226457212     -1.3318396972
C     -0.524379259     0.9492831588     -2.6820219141
C     0.9007405465     0.6252792259     -2.6892998409
C     -2.5854329795     0.0749445717     -1.5681167438
C     -1.4960065136     -0.1155621385     -2.5257205544
C     -3.0482429713     -1.1065481858     0.5581583154
C     -3.0856401152     -1.0650805462     -0.8838647854
C     -2.658255603     -2.4634933469     0.9683191392
C     -1.1637608528     -1.4130057755     2.6378280385
C     -1.7306213114     -2.6041802183     2.0232112366
C     1.2189619254     -0.5729399336     2.6717400503
C     0.268883011     -1.6373759365     2.8756301406
C     3.1189911427     0.0671532557     1.1974197869
C     2.44838087     -0.9232733447     2.057020524
C     3.2530442542     -0.1122703361     -1.2217340828
C     3.6256164253     -0.5975812398     0.0711157111
C     1.3159962675     -0.7855477837     -2.5697462276
C     2.5036400104     -1.1326979448     -1.8716529282
C     -1.0640763277     -1.4527518116     -2.7835600684
C     0.3152971888     -1.7862867236     -2.6628691138
C     -2.7842235918     -2.3877028788     -1.336793853
C     -2.5226065093     -3.2680115447     -0.1830742956
C     -1.8010967224     -2.5755459024     -2.2774426734
C     0.4174852407     -3.0950604951     -1.9457881228
C     -1.316742785     -3.9996887162     -0.4413213076
C     -0.8652887588     -3.5863046594     -1.7565790862
C     -0.6674492419     -3.527190711     1.8549143676
C     0.5427661431     -2.9358788546     2.4087635819
C     -0.3565764249     -4.1033431965     0.5933146668
C     2.6189591146     -2.2211779303     1.4444604879
C     3.2290789644     -1.9825048671     0.1612418641
C     2.5432660881     -2.3448433345     -0.9993245443
C     1.4459236948     -3.2721061075     -0.9397877627
C     1.6323590668     -3.2037088857     1.5381120832
C     1.063061608     -3.8006847333     0.3269687005


