60

 C     -0.0717169803     -4.1397000343     0.9723171598
C     1.2427816039     -3.7902700293     1.07992494
C     1.8284334536     -3.6732532232     -0.281362187
C     -0.3665520272     -4.23935404     -0.4908652204
C     0.7547539295     -3.7092193991     -1.2217550654
C     -1.6068371283     -3.7208706542     -0.684182217
C     -1.0934767121     -3.3308320219     1.5832384337
C     -2.1560521066     -3.284793672     0.6246248989
C     -0.7459619687     -2.1216174243     2.2873964214
C     1.6613393092     -2.6559603549     1.8442462303
C     0.6857780892     -1.7955344523     2.4524647937
C     2.7551488861     -2.6391489075     -0.2499560699
C     2.7673592859     -2.0727309355     1.1143537184
C     2.7756363643     -1.7297789428     -1.3287759442
C     0.5519984295     -2.5703894631     -2.1096639368
C     1.6371587356     -1.6615661472     -2.2152936512
C     -1.8718319223     -2.6691045446     -1.6304663047
C     -0.7983055975     -2.0038996379     -2.2990390801
C     -2.9355749121     -2.162428136     0.4206641219
C     -2.9184713752     -1.8872714454     -1.033899849
C     -1.7217156489     -1.025210696     2.2573265081
C     -2.8615416647     -1.0613152979     1.3405790448
C     -1.2923844795     0.2677285237     2.6838776789
C     1.0888246892     -0.4017945818     2.6705291966
C     0.0812131513     0.5799090303     2.8700931615
C     3.1074072743     -0.7520207206     1.2870458793
C     2.3336266807     0.0835649216     2.1600112826
C     3.2736830947     -0.3998976057     -1.1290373101
C     3.5404479815     0.0687522016     0.1633815512
C     1.4698294799     -0.2657938476     -2.6065720397
C     2.579997432     0.4755863825     -2.0636962459
C     -0.9638010153     -0.553976616     -2.6125236408
C     0.200690779     0.3382421603     -2.7497257353
C     -3.165935031     -0.6205788229     -1.4797872456
C     -2.198994617     0.0619855594     -2.3173590725
C     -3.4200679524     0.1668816522     0.8612800127
C     -3.6561531989     0.3262017576     -0.5343960283
C     -1.9533382888     1.5016271577     2.2711415546
C     -2.981192987     1.4596194801     1.3500329807
C     0.2958644729     1.9998042835     2.5705199854
C     -0.9692808214     2.5740616146     2.238903421
C     2.5051130263     1.4572139949     1.7278801512
C     3.2593941801     1.436784612     0.4976076273
C     1.5110313622     2.458578777     1.9615008139
C     2.4741176393     1.8202870694     -1.8174248874
C     2.9451838468     2.3629068076     -0.5250369211
C     0.0908445593     1.8033821104     -2.5302459309
C     1.2746260922     2.5307541037     -2.1940782525
C     -2.3012405987     1.4868028891     -1.998810016
C     -3.2540065035     1.6309716378     -0.9469799375
C     -2.9562525906     2.403635874     0.2134835589
C     -1.1895222049     2.3649007192     -2.070144186
C     -1.0367079835     3.5671229993     1.2323123425
C     -1.969918677     3.3520328591     0.1131946146
C     -1.1973491684     3.4667361858     -1.1291668073
C     1.4255685924     3.5612596253     1.0242006253
C     2.1570258847     3.470236515     -0.2257286369
C     1.2127413284     3.6769014686     -1.3242946516
C     0.1502141821     4.094102948     0.7022423853
C     0.016350346     4.089735433     -0.7761077232


