60

 C     -1.2700036666     4.6826600397     0.7069749186
C     -0.3175274664     4.9233063681     -0.2505140659
C     -0.6355834931     4.2109817702     -1.4952615176
C     -2.1960193772     3.7216499159     0.1192386169
C     -1.8369966507     3.4498792875     -1.2771117632
C     -2.2597394344     2.6313273867     0.9893190336
C     -0.5981269097     4.0281236549     1.8474278974
C     -1.2359250465     2.805229451     2.0726970633
C     1.0020728648     4.4999479646     0.2094257232
C     0.8368429245     3.9911229944     1.5550784737
C     0.541502132     3.5441225477     -1.8915071308
C     1.5645041676     3.675849756     -0.7916482845
C     0.4232936317     2.3110086428     -2.5265862568
C     -1.9123973925     2.1138603026     -1.7566341254
C     -0.8442202208     1.6402183366     -2.5902357901
C     -2.5072444725     1.3296507251     0.5087906573
C     -2.481516212     1.0777204117     -0.9114676318
C     -2.2546283074     0.2293575809     1.4362597677
C     -0.5157365634     1.6302120647     2.5204816338
C     -1.1020462471     0.3174200675     2.3342122149
C     1.5463269718     2.8477129687     1.8914585773
C     0.8935936689     1.729910155     2.5699381861
C     2.3523649523     2.5313782587     -0.4502324522
C     2.4544744063     2.2348140396     0.947953976
C     1.456451587     1.2952664264     -2.4264209142
C     2.4304628578     1.3861110282     -1.3889999843
C     -0.5725091987     0.2376445039     -2.7655073591
C     0.8667168995     0.0360305773     -2.7526370339
C     -2.4255694221     -0.3047955664     -1.3255970125
C     -1.4205137108     -0.7732811987     -2.2961331226
C     -2.6977143957     -1.0087454767     1.0334803286
C     -2.9037921117     -1.2455096655     -0.3976494736
C     -2.2170533023     -2.239895356     1.613670362
C     -0.3285688165     -0.8910631275     2.5134820301
C     -0.9372246136     -2.2039496635     2.2582370846
C     1.6744571329     0.5468189618     2.3779944136
C     2.6718115656     0.8793826927     1.381846335
C     1.1261879785     -0.7498096294     2.4313269
C     2.9469948336     0.1478401961     -0.9344370235
C     3.091708769     -0.0987213876     0.4987606043
C     1.4017746411     -1.2056519771     -2.3405887368
C     2.5494511695     -1.1062330919     -1.4914552038
C     -0.9271900285     -2.1540026659     -2.2525463371
C     0.5229613206     -2.3814494652     -2.2669060581
C     -2.6910979983     -2.6120900997     -0.6102113343
C     -2.5015143249     -3.2827716464     0.6596815101
C     -1.7490924572     -3.1192323797     -1.5775210477
C     -1.6408728298     -4.3522163799     0.4500363998
C     -1.1988625504     -4.3013951223     -0.9971791087
C     -0.0687981256     -3.3458028627     2.0474045932
C     -0.4849173984     -4.4810489032     1.2279323665
C     1.9003195914     -1.8301342979     1.8166888398
C     2.8449271375     -1.4680028886     0.7889060386
C     2.7366662765     -2.1374049425     -0.4917526747
C     1.3130819039     -3.1076238403     1.7319294685
C     1.0419733382     -3.540939159     -1.599985956
C     0.1694276385     -4.5370429747     -1.0226258237
C     0.6146026052     -4.8643282513     0.3464651142
C     2.0993283222     -3.3432313203     -0.6162947858
C     1.6587216564     -4.0001857372     0.6085488798


