60

 C     0.2639939148     4.4138699839     0.3628252107
C     1.5203677167     3.9460723197     0.6527632314
C     1.4315630899     3.0917617037     1.8692294613
C     -0.6400996099     3.938915152     1.4432295089
C     0.0677640272     2.9528408522     2.2417458332
C     -1.8219442763     3.5813440611     0.8620457171
C     -0.3557057544     4.0904600476     -0.916156874
C     -1.6966108403     3.6942242547     -0.6265293267
C     0.3591796218     3.2922204746     -1.831744276
C     2.3081325366     3.2367848217     -0.3105409475
C     1.7416768181     2.9452222111     -1.5720270751
C     2.2623153735     1.9944281383     1.704859458
C     2.9573690046     2.1510683231     0.4121838138
C     1.8400302836     0.6952958924     2.131854078
C     -0.474555909     1.6297544784     2.4514449125
C     0.4472975964     0.4981299995     2.5193321223
C     -2.4679113148     2.3594079533     1.1738168951
C     -1.8542028419     1.3687092814     2.0065287019
C     -2.3015738041     2.574928068     -1.181697572
C     -3.0318953278     1.9210013624     -0.0910469248
C     -0.2729889508     2.1079831714     -2.4292667835
C     -1.5903919179     1.7035607297     -2.1115382548
C     1.9847318821     1.6418903337     -2.1685781925
C     0.7293220958     1.1034648714     -2.6679622534
C     3.3623670186     1.0249301418     -0.2495285641
C     2.9012629754     0.7725969154     -1.6128977631
C     2.6266396494     -0.4178173101     1.6288630467
C     3.3790302011     -0.2405738566     0.4281995295
C     2.1777401645     -1.7397087515     1.9149539953
C     -0.088376592     -0.8772832835     2.5474486267
C     0.8206711315     -1.9547061535     2.4069795151
C     -2.3582691884     0.0006908397     1.8925400404
C     -1.5183539317     -1.1327451458     2.2842966736
C     -3.4417263883     0.6543806967     -0.2269143681
C     -3.3864043335     -0.2367217735     0.918529924
C     -1.9295136081     0.2809329896     -2.1830168176
C     -3.1006658851     -0.1343026602     -1.4254724191
C     0.4532517619     -0.2904129028     -2.6625602844
C     -0.934810377     -0.7296730392     -2.4776991014
C     2.7465241849     -0.6437074674     -1.7637090646
C     3.3223604393     -1.2732858409     -0.5857266861
C     1.5650535268     -1.1979152506     -2.3446297122
C     2.5687097298     -2.8315590735     1.1082122555
C     2.9938162711     -2.5719430133     -0.2459216766
C     0.4064760344     -3.2591604853     1.9022310077
C     1.4675349771     -3.7656969997     1.0557422865
C     -1.8985271243     -2.4477171037     1.8417619629
C     -0.8989876904     -3.4497877629     1.5161516484
C     -3.600982514     -1.5172628032     0.3751887016
C     -3.331555016     -1.4503217604     -1.0930996001
C     -2.9340310346     -2.604029465     0.8636689279
C     -1.1926227069     -2.1482734859     -2.1097628572
C     -1.1779251047     -3.9454547086     0.139205627
C     -2.4192333202     -2.4957341997     -1.4195463909
C     -2.3652514001     -3.3560195187     -0.2739568256
C     1.287200079     -2.5650686674     -2.012900553
C     2.1016432629     -3.2870528988     -1.1135415276
C     1.2089854283     -4.0859485636     -0.2828382854
C     -0.0997467321     -3.0231313526     -1.8735921166
C     -0.1181478025     -3.9938549708     -0.7914293187


