60

 C     3.2805768908     -2.4747265787     0.9026317955
C     3.7933085836     -1.2615186145     1.2449277895
C     4.2388414706     -0.5518988282     0.0158056202
C     3.3061123131     -2.5279606767     -0.6025511621
C     3.681899536     -1.2329420915     -1.1002048701
C     2.1543428562     -3.1186309989     -1.0079548364
C     1.9704769055     -2.8576254235     1.3349359561
C     1.398720401     -3.5250252167     0.1899782884
C     1.1454819935     -1.9265155517     2.0630121152
C     3.0558742662     -0.3139894978     2.0325644176
C     1.696829617     -0.6030786637     2.3943285809
C     4.0836342177     0.8164632844     0.2219124039
C     3.4416834767     0.9991475117     1.5455308143
C     3.6108730243     1.5792966776     -0.8714355265
C     2.7563959795     -0.5136744643     -1.9805846075
C     2.8403383196     0.8895377305     -1.9164068141
C     1.2108928725     -2.4818901267     -1.9106868238
C     1.4401972635     -1.1240744517     -2.3500806618
C     0.0672753843     -3.4224432351     -0.0923160018
C     -0.0754951629     -2.8628811163     -1.4604901961
C     -0.3008415186     -2.0663935808     1.9338675486
C     -0.8192018845     -2.9447905475     0.9054143425
C     -1.2093150032     -1.0113050903     2.3828754446
C     0.7691218395     0.5349228015     2.5051208529
C     -0.686128287     0.3340552156     2.4810929729
C     2.6013978997     2.0788369219     1.7392941188
C     1.258576003     1.8344582075     2.232211007
C     2.9495206829     2.7924856296     -0.586753122
C     2.5127909158     3.0913002393     0.7089139201
C     1.6817698092     1.7230326839     -2.2184477543
C     1.7938905711     2.9312633024     -1.4926669332
C     0.2707625335     -0.2919534827     -2.5798656797
C     0.3951175718     1.1578186425     -2.4750267374
C     -1.2418826734     -2.1591404896     -1.7951930224
C     -1.0889798346     -0.8665828479     -2.4558141266
C     -2.144911284     -2.7973903172     0.4352724527
C     -2.3793126159     -2.4149395233     -0.9792497971
C     -2.6317103673     -1.1964480142     2.1659510734
C     -3.0988086398     -2.1886618389     1.2198249757
C     -3.50995896     -0.0898614926     2.0450005596
C     -1.562147403     1.4362397785     2.073767098
C     -2.9665538952     1.2017547733     1.8518907911
C     0.3899940875     2.7989128905     1.5654823228
C     1.1335761615     3.5162595987     0.62103498
C     0.6955521245     3.4237856427     -0.7609337506
C     -0.9815679906     2.5301785629     1.3476453782
C     -0.7575210006     1.9512373995     -2.089362154
C     -0.5983631645     2.9594055156     -1.0501174687
C     -1.5501158488     2.9013766081     0.0529114489
C     -2.2258842876     -0.0342188204     -2.4411826966
C     -2.0569400705     1.3953246001     -2.2439389166
C     -3.5479169829     -1.5979710717     -1.0230447143
C     -4.0782534087     -1.540127375     0.3360506134
C     -4.4347103544     -0.3339342783     0.9062369105
C     -3.4939576353     -0.4128139799     -1.8013128143
C     -3.6374508065     1.8495418913     0.7544095895
C     -2.863501226     2.5040326505     -0.2389620477
C     -3.1520169721     1.8866140702     -1.512805476
C     -4.4527635771     0.8388468279     0.0941550705
C     -4.0796169165     0.7892779283     -1.2666625415


