60

 C     -1.6210899589     -4.1656232796     -0.9713131479
C     -0.2804723512     -4.0504012004     -1.5259112782
C     0.6331947023     -4.2815005383     -0.5016755941
C     -1.481355096     -4.140495318     0.4999553902
C     -0.1364478967     -4.2496558129     0.7966839038
C     -2.1794763877     -2.9986546259     1.0221032098
C     -2.3086812817     -3.0181639844     -1.3096217162
C     -2.8315408303     -2.3779059313     -0.1169487695
C     -0.1772718385     -2.7963583227     -2.265955151
C     -1.4796470775     -2.1711556895     -2.185820334
C     0.9812824812     -1.9851819681     -2.1913926272
C     1.7649464358     -3.4737670602     -0.349730685
C     2.0732841056     -2.4395355609     -1.3104229083
C     0.5413952617     -3.3315800439     1.6566817803
C     1.8461967495     -3.1101650663     1.0716252767
C     -1.5590935252     -2.1197988293     1.980486229
C     -0.1332191509     -2.2271835184     2.2740243811
C     -2.1470751381     -0.838612207     2.0924647633
C     -3.1142926305     -1.0174183473     -0.1423635349
C     -3.0690707977     -0.3503979515     1.1161103804
C     -1.6309845914     -0.7880546788     -2.1773079816
C     -2.7121505611     -0.2228943774     -1.321707868
C     0.8360456363     -0.5496566148     -2.4653413313
C     -0.4820036278     0.0435435732     -2.5066701013
C     1.9844379359     0.3330736027     -2.2300032542
C     3.0372259638     -1.4957795194     -0.8883072318
C     3.0610334681     -0.1408826025     -1.425070538
C     2.6027859495     -2.0380929713     1.4574196833
C     3.4480378372     -1.4391815815     0.476622632
C     0.6362736618     -0.9855012392     2.5545923308
C     2.0145209927     -0.9649052294     2.2466883476
C     -1.4466809273     0.3271245026     2.6069960873
C     -0.0400772613     0.3217859195     2.691683454
C     -3.133421179     1.0755815527     1.1951637426
C     -2.1792169752     1.5063934549     2.2008021719
C     -2.8454965953     1.1420081398     -1.2363456945
C     -3.2540365639     1.806988412     0.0093920415
C     -0.6607603289     1.505032213     -2.4509641904
C     -1.9120056836     2.0438906597     -1.9239036905
C     1.7890349271     1.754137254     -2.2634644504
C     0.4604795104     2.3475338143     -2.410367764
C     2.5112679289     2.5961946348     -1.3884888983
C     3.5924257977     0.7163753525     -0.3855135833
C     3.6019236163     -0.0645962799     0.8121190245
C     2.697188723     0.2631761468     1.8555247671
C     3.1837122974     2.0316763603     -0.2840281551
C     0.6716426685     1.5989286449     2.4070605385
C     2.0464647299     1.543807725     1.8740382111
C     2.4842847683     2.5060450125     0.9216863897
C     -1.5312634188     2.7293132358     2.0631237427
C     -0.0827209688     2.7677402195     2.1517871239
C     -2.7257586649     3.1236522164     -0.0348024504
C     -1.9540057327     3.290463147     -1.2886884489
C     -1.9388156251     3.6124858556     1.0003897758
C     0.4249402443     3.611262575     -1.6534664235
C     1.6269457153     3.6499375803     -0.9216057154
C     1.6058239863     3.5788811415     0.5063884274
C     0.3822682656     3.7731005219     1.1736866094
C     -0.7602597601     4.0237524908     -1.0070293585
C     -0.7306718346     4.2092145912     0.4189326601


