60

 C     4.5012360534     0.320765135     0.4155740554
C     4.115950114     -0.9021041221     -0.194159789
C     3.3774608446     -1.7280662329     0.7200403758
C     3.806934299     0.377941795     1.6809006785
C     3.1926621671     -0.9059924505     1.9093610609
C     2.9632615398     1.5227427195     1.705042976
C     3.9694796433     1.3587999833     -0.4043810566
C     3.1474724886     2.1983561619     0.4182269743
C     3.5578209376     -0.6198099048     -1.5101408793
C     3.4118096333     0.8243158741     -1.6297557157
C     2.5689759914     -1.4564921303     -1.9769291375
C     2.3109676237     -2.5523220842     0.2471689423
C     2.0536468533     -2.5380062801     -1.1594975251
C     1.1481437867     -2.7944536129     1.1319095107
C     1.979277668     -0.9455877406     2.5925255073
C     1.0002613375     -1.948116115     2.2818273262
C     1.6434034427     1.4898326264     2.3168696509
C     1.2564902016     0.2656793562     2.8999590567
C     0.5784343747     2.3752952729     1.8181401291
C     2.0592555243     2.8149428857     -0.1585365595
C     0.8539077204     3.0765335307     0.6108003245
C     2.2184047378     1.3715347189     -2.1820770954
C     1.6732649219     2.5306093584     -1.5260040262
C     1.453621137     -0.9314963586     -2.7568967969
C     1.2462711482     0.4743579599     -2.8461535455
C     0.7509089319     -2.8526167957     -1.6663976397
C     0.357198385     -1.846662526     -2.6485162043
C     -0.0527127265     -3.3051759753     0.5827276793
C     -0.2182418046     -3.4179670189     -0.8468404604
C     -1.3761638998     -2.9889334711     1.1525362333
C     -0.2963642381     -1.4804585176     2.7274816683
C     -0.1471540051     -0.087924925     3.0202442607
C     -1.5044379005     -1.9930285185     2.1914677847
C     -0.8285897089     2.1212905679     2.1539826856
C     -1.1901580102     0.8384067543     2.7901390296
C     -1.8311912147     2.7491169411     1.3514257304
C     -0.1855035426     3.3443022109     -0.3373009228
C     0.2912758115     2.8743150556     -1.6456900443
C     -1.4997557935     3.2219360754     0.0262292122
C     -0.1145247706     0.894073426     -2.9932620161
C     -0.5784047216     2.1452343128     -2.4473236816
C     -0.9981816525     -1.4063510474     -2.7288070624
C     -1.2190945334     -0.0222471996     -2.938394911
C     -1.6012118002     -3.1800017827     -1.1414892232
C     -2.3124130408     -3.0133783294     0.1104256131
C     -1.9959038916     -2.1297377567     -1.9703941378
C     -3.3282794995     -2.015905058     -0.034364293
C     -3.1404620192     -1.4207123063     -1.3282944107
C     -2.6345366166     -1.1381553054     2.186775753
C     -2.4898051964     0.2559393656     2.5588274804
C     -3.6034449116     -1.1892630445     1.0775719329
C     -3.1356890151     2.1707970759     1.2302166584
C     -3.487211434     0.9939405141     1.8528177904
C     -4.08118667     0.1065802842     0.8437590382
C     -2.4838009881     2.6558143813     -0.9270367896
C     -1.9749926538     1.999594772     -2.0790596965
C     -2.3759500573     0.6602685972     -2.3628720043
C     -3.3407183933     -0.026741186     -1.5300141388
C     -3.514898619     2.0768213278     -0.1939307448
C     -3.9468138886     0.7275685558     -0.4404544114


