60

 C     2.0704798921     -3.5762478359     1.4829417463
C     1.1449093461     -4.1445894672     0.5652676599
C     1.4617584254     -3.6794521498     -0.7661525392
C     2.8481969696     -2.6180095211     0.7632961178
C     2.4800339383     -2.6441896066     -0.6272830181
C     2.8120777782     -1.3589433274     1.4455773882
C     1.2889042767     -2.8011321936     2.4055568832
C     1.7913277582     -1.4592217916     2.4730912911
C     -0.2052930996     -3.9482518656     1.0529762777
C     -0.1129970074     -3.0336574681     2.193718557
C     -1.2321659284     -3.787491154     0.1158852271
C     0.4183827178     -3.4788029397     -1.6744192685
C     -0.919497195     -3.7653260549     -1.2751248243
C     0.4086782218     -2.2784698735     -2.5285960692
C     2.4212601333     -1.4263353781     -1.3623528793
C     1.3680075316     -1.25919298     -2.3896458737
C     2.9519688344     -0.1692004075     0.7361714633
C     2.930190496     -0.2346963701     -0.721283794
C     2.4905358388     1.0505346905     1.4026454801
C     0.923022966     -0.3768813687     2.7185343946
C     1.3911943463     0.961586823     2.3283388886
C     -1.0170636944     -1.9592001883     2.3508630674
C     -0.4947525144     -0.6680732491     2.8328096375
C     -2.2532417593     -2.7711756964     0.3472277269
C     -2.2151185671     -1.935984831     1.4829081218
C     -1.7737422117     -2.7709976983     -1.881723966
C     -0.9916553071     -1.9186795677     -2.7288763498
C     -2.6561436916     -2.2044417012     -0.9480896982
C     -1.3877935073     -0.6022078567     -2.8889358962
C     0.9800828114     0.1129400284     -2.8065847459
C     -0.3841469893     0.4241893139     -3.0586933262
C     2.8088847962     1.0079429497     -1.3926524724
C     1.7853961073     1.2051335631     -2.4195773313
C     2.7287564778     2.2779772177     0.699121396
C     2.9890980468     2.214293763     -0.7172797772
C     1.9575006788     3.437776953     0.9560859878
C     0.4685685414     2.0974561896     2.4274440066
C     0.7767125028     3.3399675637     1.7180114112
C     -1.3710858124     0.4427618685     2.8164439502
C     -0.8912358702     1.8102195253     2.6408686985
C     -2.9623951938     -0.7169797645     1.3878290938
C     -2.6658047239     0.3471466423     2.2487835128
C     -3.0463313615     -0.8196229486     -1.0783920289
C     -2.4889221809     -0.047436103     -2.1556394251
C     -3.370210053     -0.13693862     0.1106345475
C     -0.9567440915     1.6725500149     -2.6550089137
C     -2.2213294099     1.3616344828     -2.0109443509
C     1.276733123     2.5518680262     -2.2943851222
C     2.1267111121     3.2205763154     -1.3444767282
C     1.5871517352     4.0285148792     -0.3602935126
C     -0.1522435297     2.780748508     -2.2625717323
C     -0.2719368585     4.0360074644     1.0001648004
C     0.2009080447     4.3014531072     -0.3392661089
C     -0.6912482931     3.6655429111     -1.2540581299
C     -1.9291992001     2.530102429     1.8770618815
C     -2.9301169676     1.5971756029     1.5629586945
C     -3.2416788622     1.3016483227     0.2135883296
C     -2.6251644348     2.0893289533     -0.8494940588
C     -1.5634592075     3.4903241037     0.9217258761
C     -1.8647157248     3.2344278656     -0.486730774


