60

 C     -0.7715885715     4.6130756879     0.9513893565
C     -0.0601987174     4.6908764786     -0.3321496158
C     -0.902644225     4.1696187224     -1.3277948252
C     -1.9811432165     3.8708826684     0.7582764117
C     -2.0843990197     3.6291838377     -0.6253193283
C     -1.9311214819     2.6976241961     1.6170911841
C     0.0452670337     3.8807692537     1.8318649158
C     -0.6651440726     2.72580074     2.3323786459
C     1.2657604975     4.1472320666     -0.1681365792
C     1.360750488     3.6994275977     1.2331365534
C     1.7758731856     3.2936998339     -1.1639497269
C     -0.4484332242     3.1515864141     -2.2159997059
C     0.9085005477     2.8077746197     -2.2259205442
C     -2.3596911377     2.3369932911     -1.1302551708
C     -1.4200494706     2.0375866637     -2.1828868648
C     -2.4013488884     1.4501506508     1.1753830283
C     -2.711954631     1.2772977703     -0.2527897239
C     -1.9685449738     0.2622899072     1.9049198108
C     0.0313419623     1.5125017836     2.6323222845
C     -0.6767849051     0.2394113864     2.5766014072
C     2.0516044526     2.5508057641     1.5477694565
C     1.4350726093     1.5110020388     2.3721444878
C     2.638764809     2.1768899898     -0.8059444129
C     2.8272374964     1.8490291251     0.540239018
C     1.2862007976     1.4387453886     -2.5217768397
C     2.4357733738     1.0893900108     -1.7463532426
C     -1.0767948671     0.7061434412     -2.5040293766
C     0.3234001698     0.4285103896     -2.8216278984
C     -2.7023800533     -0.0370157791     -0.7989525263
C     -1.8861136918     -0.3688857914     -1.9601848523
C     -2.5292702491     -0.9431682504     1.496899511
C     -2.997369765     -1.0751701247     0.1243351757
C     -2.0202505248     -2.231020301     1.8935587473
C     0.0289197253     -1.0265635404     2.624162367
C     -0.6817746778     -2.3043395908     2.3946693724
C     2.0722169304     0.2734397734     2.0982078096
C     2.9038818982     0.4644301194     0.9175288799
C     1.4602165644     -0.9676275471     2.3550660463
C     2.7171350102     -0.2635589597     -1.4194649009
C     3.0490607354     -0.5773749011     -0.0296925812
C     0.7644914048     -0.9065841526     -2.7525651373
C     2.0007335232     -1.2563913641     -2.1348647829
C     -1.4948260952     -1.7686580394     -2.1634914294
C     -0.1493827399     -2.0228902864     -2.5687951709
C     -2.914722172     -2.4181481937     -0.2307735472
C     -2.4991490335     -3.1847007823     0.9167437714
C     -2.1391399729     -2.8110450467     -1.3902192275
C     -1.6515733616     -4.1937954538     0.4425168885
C     -1.4370740422     -3.987078387     -1.0295062214
C     0.0831517331     -3.4928474302     2.0224913398
C     -0.433821427     -4.4311196092     1.051541786
C     2.0917280947     -2.0850859898     1.7165546635
C     2.7906197356     -1.8819833739     0.4508818065
C     1.4589021215     -3.3258264982     1.6774342401
C     1.8962672724     -2.6345345721     -1.6764141815
C     0.5994979345     -3.1620085773     -2.0836590655
C     -0.0532385084     -4.1421026757     -1.2948743908
C     0.5747184825     -4.5467828274     -0.0441405654
C     2.4340253454     -2.9801733598     -0.4291328921
C     1.7388132816     -3.955688205     0.3755561622


