60

 C     1.0336383984     -4.2088101865     1.2137654737
C     -0.4047394657     -4.0779255007     1.2189527024
C     -0.8910986913     -4.1436148375     -0.1034593211
C     1.4345790105     -4.0235375978     -0.1657722168
C     0.2987165764     -4.0778925201     -0.9954219594
C     2.314800513     -2.8856515422     -0.2844474601
C     1.5449773385     -3.091328089     1.9070872362
C     2.4446414163     -2.3475951468     1.0472855469
C     -0.7753606192     -2.9239470885     2.0058387517
C     0.4669831735     -2.3231495079     2.4632040873
C     -1.8302142424     -2.0696192091     1.6192768931
C     -1.8364809942     -3.2151532466     -0.5629454615
C     -2.4606670489     -2.2638885297     0.3168661629
C     0.0692070108     -3.0683160667     -1.948805533
C     -1.3438310113     -2.6959090751     -1.8450825599
C     2.2015559399     -1.9491113602     -1.3558982616
C     1.0354051388     -2.0351835174     -2.2288925794
C     2.8864934011     -0.6729939365     -1.1767354881
C     2.7019452218     -0.9822930345     1.2748704577
C     3.2698432768     -0.2281372919     0.1668467919
C     0.6024114744     -0.9165603501     2.6415519995
C     1.8898527081     -0.3067574359     2.2735159669
C     -1.8395625677     -0.720536522     2.204527811
C     -0.5880912022     -0.1193813423     2.6891817819
C     -2.8958092404     0.1241691244     1.8219609008
C     -3.1547258854     -1.1369764918     -0.2897175038
C     -3.5897374189     -0.0800155908     0.5603503135
C     -1.8031760636     -1.5020768472     -2.3255495959
C     -2.8506112396     -0.78781113     -1.6427123697
C     0.5301453019     -0.8021946378     -2.8204225619
C     -0.87878299     -0.5460583593     -2.8970038223
C     2.610045208     0.3491258381     -2.1287064978
C     1.3513780078     0.3387123751     -2.8237844377
C     2.9255860575     1.7228858587     -1.8587949867
C     3.5416462758     1.1593305767     0.4062749531
C     3.4325371789     2.1348390009     -0.658665539
C     2.0034637093     1.0913772231     2.3372422582
C     2.9403399011     1.7657467447     1.5355848043
C     -0.4556495828     1.3536278829     2.6796466723
C     0.8199795971     1.9285845457     2.4797977666
C     -2.8310809116     1.5613254438     2.0580172891
C     -1.5462668634     2.1698760207     2.3083737839
C     -3.8145883195     1.2370895416     0.0315408383
C     -3.4761856875     2.2302808964     1.0278256477
C     -2.6888440933     0.5980197334     -1.9969360774
C     -1.4282062827     0.7542724468     -2.6862890923
C     -3.1548520641     1.6097905189     -1.1658577461
C     0.7819840544     1.6924393392     -2.7591496997
C     1.7445062949     2.543176681     -2.1951302494
C     -0.5905428968     1.8980914942     -2.4645976225
C     2.5761675387     3.2700383237     -0.2016401185
C     2.3205922625     3.0448244229     1.1231873207
C     0.9918141515     3.0929225458     1.6430787124
C     1.4560663508     3.4223672865     -1.1293300782
C     -1.369439762     3.2319284738     1.3371624016
C     -2.510599936     3.1550501226     0.4633337854
C     -2.2704779191     2.7876065244     -0.8721851252
C     -0.9538224519     2.8891070602     -1.4444606869
C     -0.0926519367     3.5327821925     0.818411047
C     0.1047949996     3.5130379533     -0.6461653055


