60

 C     -0.8499996863     -4.2532624749     0.7432694386
C     -1.4661380993     -3.4806821097     1.706059131
C     -0.4137719188     -2.8147352422     2.5144470501
C     0.6130961265     -4.1330369406     0.9718875627
C     0.8566492927     -3.1537495321     2.0267423433
C     1.2163332634     -3.9964355761     -0.2501451527
C     -1.0950536549     -4.0072673006     -0.6669176234
C     0.197507749     -3.949741971     -1.3109238906
C     -2.0641717859     -3.0559233719     -1.0186875582
C     -2.4339673875     -2.4875102355     1.3723439939
C     -2.7910652607     -2.3436831751     0.0143056423
C     -0.8095450192     -1.4768527591     2.749716049
C     -2.0996878532     -1.2809825787     2.1155884406
C     0.1574269348     -0.4376324437     2.7775598982
C     1.828427874     -2.1095207694     1.8506804898
C     1.5318278458     -0.7993255798     2.4505810626
C     2.1806557849     -2.9551950415     -0.4699825809
C     2.6297031986     -2.1355599594     0.6266152796
C     0.549988844     -2.8813349849     -2.1355218267
C     1.8655655889     -2.3509209101     -1.7187893908
C     -1.7787605517     -2.0697620917     -2.063482108
C     -0.4515059164     -1.9368923044     -2.604926841
C     -3.0986800022     -1.0289014334     -0.4705010644
C     -2.5326226134     -0.8845208473     -1.8023027679
C     -2.4727978646     -0.0018960643     1.6888344163
C     -3.1324171163     0.0921475946     0.3847188838
C     -0.3313023724     0.9355232134     2.6279117264
C     -1.6936105427     1.1342392102     2.1833957486
C     0.6462260752     2.0196869029     2.428683994
C     2.4139538456     0.2730718916     2.1496528824
C     1.9743240429     1.6662585554     2.1480939653
C     3.2816664569     -0.9448511851     0.2310569174
C     3.3739576319     0.126972504     1.1298470211
C     2.2528311404     -1.0079705866     -2.0205207721
C     3.1276567895     -0.3685739767     -1.1071971842
C     -0.0034909924     -0.6474121597     -2.9939463775
C     1.3588974472     -0.1928028108     -2.7825090318
C     -2.1227370468     0.3983514154     -2.2882816226
C     -0.8599872395     0.5069104098     -2.941625736
C     -3.1444587812     1.3653067766     -0.2545568264
C     -2.5891976608     1.5415251986     -1.5958275947
C     -2.0787258028     2.4344813149     1.6838313242
C     -2.8584929532     2.5090103945     0.4794357406
C     0.1945882528     3.3135418193     1.9114819466
C     -1.1631736228     3.5138747155     1.6544191509
C     0.9466699035     3.9818354453     0.8559994658
C     2.6936993807     2.3483116401     1.0544768519
C     3.424620131     1.3737030984     0.381674515
C     3.147245247     1.0704449546     -0.9845068395
C     2.0484371615     3.344876965     0.290197578
C     1.3281162143     1.2220637232     -2.6239386854
C     -0.0458003693     1.671940726     -2.7631918847
C     2.2243418618     1.9069933777     -1.7306237615
C     1.7754871265     3.1097836245     -1.1297369057
C     -1.891810767     2.8063700693     -1.6288813943
C     -2.2376229204     3.4980145334     -0.4189382295
C     -1.2700625066     4.1658322584     0.2996456886
C     0.0263991985     4.3391661548     -0.2061740629
C     -0.5240470255     2.8613589801     -2.1261368313
C     0.438404724     3.6553391488     -1.3943801539


