60

 C     0.4560190046     -5.0615482989     0.6790656721
C     -0.9058839198     -4.6813381881     0.4917048371
C     -1.1666510018     -4.3909900233     -0.8898179208
C     1.1245798769     -4.7416368388     -0.5639314486
C     0.1357683925     -4.3083132957     -1.5192032181
C     2.1793338035     -3.8413274536     -0.2997064345
C     0.9871373793     -4.13329207     1.6589709758
C     2.1510254397     -3.5287484803     1.1553168
C     -1.2778744328     -3.6769436825     1.4775297175
C     -0.0643438429     -3.2648553242     2.1741024064
C     -2.2101035718     -2.7061071236     1.1258917979
C     -1.9151874614     -3.2455962126     -1.2632607981
C     -2.5899032149     -2.5242479159     -0.2728624491
C     0.2255687366     -3.0553624892     -2.1996944895
C     -1.0878105758     -2.4364500069     -2.1774539308
C     2.3150528219     -2.6130329136     -0.9912212618
C     1.3535466153     -2.1835712074     -2.0057092293
C     2.3571236998     -2.1498557647     1.3114044424
C     2.6688794031     -1.617323087     -0.0052252737
C     0.1755754874     -1.8764890026     2.423912034
C     1.4740655807     -1.3237191718     2.0666167632
C     -2.1238870945     -1.3861474347     1.6841925731
C     -0.9514291798     -0.9333844698     2.3504646872
C     -2.867950082     -1.1283606188     -0.4703137176
C     -2.8034804324     -0.4633149599     0.7981767122
C     -1.2675534077     -1.0516233585     -2.3234703879
C     -2.3738173121     -0.4198546162     -1.5960271299
C     1.1852808937     -0.7774729619     -2.2303842893
C     -0.1109462438     -0.2073548259     -2.5712353265
C     2.6068008736     -0.2612667112     -0.2699220033
C     2.0860416967     0.148922956     -1.5490147493
C     1.6302903616     0.1060643019     1.9140702805
C     2.4199931373     0.6527025493     0.8397831208
C     -0.7336742286     0.4935975351     2.4298025909
C     0.6462266198     0.9965000991     2.480404849
C     -2.6389500853     0.9161054263     0.9043672439
C     -1.7366276519     1.4235320417     1.927642627
C     -2.4290752915     0.9849711428     -1.5178265185
C     -2.7393990801     1.66210055     -0.3085393837
C     -0.2771407587     1.2463936253     -2.653909478
C     -1.5021352797     1.8440717453     -2.2376058535
C     1.9999831868     1.5201146204     -1.777626706
C     0.884444076     2.0868485583     -2.5335624043
C     2.4738026125     2.0686828102     0.583190017
C     2.4459266621     2.4799367326     -0.8132832174
C     0.8930937269     2.3737455655     2.432096912
C     1.9123989482     2.9512580068     1.54761637
C     -1.4535130519     2.8093798236     1.9001251385
C     -0.2142540213     3.2952282577     2.4126438992
C     -2.2682268577     3.0295902591     -0.4060938163
C     -1.5581328496     3.1760786599     -1.6738409082
C     -1.827425212     3.6705973215     0.7465878155
C     0.7957069978     3.4388975155     -2.19024888
C     1.8467124629     3.7317841248     -1.1828975727
C     -0.423519725     4.0212480286     -1.7172506473
C     1.4640745218     4.2780074289     1.1636162002
C     0.1695151162     4.4605389883     1.7099382822
C     -0.7954080717     4.6822081613     0.6233708771
C     1.3505706073     4.5973897552     -0.2325714311
C     -0.1002342039     4.8430321167     -0.5688949671


