60

 C     1.4752706958     3.0096706677     1.8609492247
C     0.110614559     3.3870563465     1.6079782597
C     0.0467309884     3.8274091162     0.2306508326
C     2.2245245173     3.0845190574     0.6637189802
C     1.3505374404     3.5406242344     -0.3810541575
C     3.0073234145     1.8911217228     0.5196239936
C     1.8163499097     1.7751155316     2.5053940937
C     2.82006154     1.0754510671     1.6940238772
C     0.8028054431     1.0398989098     3.0832557742
C     -0.9547603974     2.5890601606     2.1593750069
C     -0.5965818907     1.4435818791     2.9416452722
C     -2.1734089327     2.4803642552     1.4117952622
C     -1.1217562062     3.635210773     -0.5137386843
C     -2.2625343881     3.1118321748     0.1310261149
C     -1.0594176923     2.9695049824     -1.8292864825
C     1.394600237     2.8834220342     -1.6036298634
C     0.1540397778     2.5706544607     -2.3280498794
C     3.1302836263     1.2791373855     -0.7684910015
C     2.3205256409     1.7916393796     -1.8323702829
C     3.4251222436     -0.1293947402     -0.7756948082
C     2.8586801525     -0.3471716565     1.6357414635
C     3.3160338194     -0.9312979743     0.4172441098
C     0.8831248251     -0.4100756724     3.1422768794
C     1.9137833273     -1.1256523072     2.4672840163
C     -1.3606002939     0.242858934     2.8995856592
C     -0.4685681475     -0.887105519     3.1777175954
C     -2.900305207     1.2285345192     1.3291227451
C     -2.4830290063     0.0666164938     2.0311178612
C     -2.9713232564     2.2335563716     -0.7738263006
C     -2.1915951814     2.0483520926     -1.9417954718
C     -3.4447347404     1.1221948649     -0.0310089198
C     -2.0446676069     0.7378240128     -2.5140283672
C     0.3171918993     1.2755610545     -2.9717923231
C     1.6828199756     0.8783468241     -2.7616491291
C     -0.7314387065     0.3171917738     -3.0205197531
C     3.029199614     -0.9280459875     -1.8883043216
C     2.0443324546     -0.4718079662     -2.7977621177
C     2.8635057156     -2.2670633365     -0.0049769456
C     2.6688674565     -2.2399257623     -1.4389047995
C     1.5836205796     -2.4672786293     2.0722278703
C     2.0083002845     -3.0052264092     0.7679158556
C     -0.7783772554     -2.1569680451     2.7263335503
C     0.2987046969     -2.9779124452     2.3000835237
C     -2.7359621023     -1.2782470355     1.4389129439
C     -1.9121757972     -2.3677315191     1.8135543291
C     -3.5018814609     -0.1018754638     -0.663414005
C     -2.9042383531     -0.2692315036     -1.970640673
C     -3.2978547288     -1.3387916383     0.1063028729
C     -2.5405871561     -1.6417400379     -2.0507989606
C     -2.8944679136     -2.3246969918     -0.7999636455
C     -0.3434249799     -1.120514024     -2.9791682629
C     1.0127403135     -1.4825871595     -2.8770427569
C     1.4387724695     -2.6008993613     -2.0101938445
C     -1.2893779225     -2.0822280635     -2.4577220869
C     0.8617400899     -3.6829260779     0.1431553485
C     -0.1443270982     -3.7222336767     1.121484022
C     -1.4963285166     -3.38905042     0.8516215419
C     -1.8814026772     -3.2587671045     -0.4983175019
C     0.4936164699     -3.361896639     -1.2333402959
C     -0.8686966618     -3.1679676125     -1.5336332384


