60

 C     -2.0373140791     -3.7434920756     0.8692641827
C     -0.6284870656     -3.9446740318     1.0442735362
C     -0.1202639339     -3.0252194193     2.003031909
C     -2.4196972382     -2.634961526     1.6355547182
C     -1.2426342349     -2.1355996554     2.3295741798
C     -3.083808313     -1.6889802554     0.7713794982
C     -2.2022986039     -3.3637625704     -0.518011472
C     -2.9236862379     -2.1431074778     -0.5923885444
C     0.0050572622     -4.0437203429     -0.2408074408
C     -0.9672649315     -3.4823771188     -1.2128949464
C     1.3285462752     -3.6762555921     -0.3239355452
C     1.1888370755     -2.495269125     1.8594753443
C     1.9881556836     -2.9995595021     0.7841670868
C     1.4441325187     -1.1359978393     2.3681160038
C     -1.0455793544     -0.7552763     2.5458602272
C     0.3204479511     -0.2535017363     2.716085853
C     -3.0845285092     -0.3156144898     1.0924782158
C     -2.132391394     0.1675562065     2.1191991502
C     -3.4530960905     0.5429146412     0.038865565
C     -2.6387165395     -1.1739254297     -1.5987715076
C     -3.212107047     0.0954939201     -1.3393709635
C     -0.5457011297     -2.448247423     -2.1312940033
C     -1.3940433881     -1.2624847233     -2.3552689984
C     1.7873169414     -3.0468699561     -1.5407660518
C     0.8636094258     -2.3295995211     -2.3422816127
C     3.0208779504     -2.1577044105     0.1983928004
C     2.8683747889     -2.1824164014     -1.230556628
C     2.6799733813     -0.533742969     2.0083837536
C     3.3999669793     -0.9844215322     0.8091047708
C     2.8493340246     0.8623845389     2.0774993046
C     0.5228590862     1.1912309469     2.7655750939
C     1.7978776444     1.742485199     2.4157550965
C     -1.9178507058     1.5362178244     2.1864369324
C     -0.6029367553     2.0641080533     2.5700630971
C     -3.2176787962     1.9658437613     0.1179234865
C     -2.5300671751     2.4727612792     1.2418967368
C     -2.7528352157     1.2215962061     -2.0294950147
C     -2.8429449569     2.4160766693     -1.1746909026
C     -0.7798680067     -0.0161961304     -2.8075618423
C     -1.5171196369     1.2042987888     -2.692668044
C     1.477403731     -1.0292103677     -2.6356902164
C     2.7424614717     -0.9511392385     -1.9445811035
C     0.6869419269     0.1070471367     -2.8479688973
C     3.67839138     0.2029988268     0.0116864508
C     3.4704349226     1.3156402752     0.8579244454
C     3.1881038213     0.2623991739     -1.348271617
C     1.8954503717     2.8983691063     1.5249048033
C     2.8229610951     2.5218075023     0.4584276906
C     -0.4448487042     3.3040083172     1.928430053
C     -1.5825673057     3.5034087895     1.0313909805
C     0.7547696267     3.6255117799     1.2301213165
C     -1.7022197411     3.2087221682     -1.3843658044
C     -0.8681267215     2.4935828035     -2.3580170352
C     -1.0850275977     3.8288381718     -0.2581674952
C     0.3743970754     3.8860992075     -0.1647928579
C     1.2994071895     1.3730757136     -2.5145375933
C     2.4976657253     1.4544431037     -1.7453844533
C     2.3804577664     2.6217477616     -0.8657284739
C     0.4956115883     2.552864657     -2.2411872439
C     1.1458849288     3.3097948312     -1.1717858742


