60

 C     1.6010494489     -4.289893322     -0.6868569784
C     0.9224403052     -4.4555004164     0.5872250419
C     -0.4560134628     -4.4698730635     0.3340937037
C     0.5873569257     -3.9961524198     -1.7021697008
C     -0.6736155455     -4.1658629462     -1.1064108468
C     0.8830170668     -2.7410527691     -2.3074496334
C     2.4250752246     -3.1747453004     -0.5904379313
C     2.1148592372     -2.2447175701     -1.6710894321
C     1.4437125567     -3.4612124619     1.5098816784
C     2.4308551703     -2.6709822106     0.7800444961
C     0.5600015212     -2.7716587089     2.3488360621
C     -1.3637048878     -3.6702403228     1.0864383039
C     -0.877477348     -2.9111670684     2.1680172816
C     -1.6702054271     -3.1697092404     -1.2129510768
C     -2.2355633813     -2.9732956566     0.1313202986
C     -0.1299015579     -1.7856236388     -2.5682248082
C     -1.4722018016     -2.009626681     -2.0272850732
C     0.31038145     -0.4157383937     -2.8111841144
C     2.348104695     -0.8945305474     -1.5045055394
C     1.5767546109     0.0616566345     -2.3127254937
C     2.562598759     -1.2983602457     0.9871442309
C     2.8325494377     -0.4524218047     -0.1870782513
C     0.7976942106     -1.383490506     2.6788051462
C     1.8428058993     -0.6480157895     2.0882494172
C     -1.4907650964     -1.6324117775     2.5070701297
C     -0.474307048     -0.7118896608     2.9326464816
C     -2.8487564143     -1.7936111773     0.4788159457
C     -2.5551207226     -1.1466135918     1.744644519
C     -2.3164738272     -0.8388511455     -1.7567755038
C     -3.0224771847     -0.7430171327     -0.4970676179
C     -0.7060815409     0.5527161712     -3.0340398089
C     -2.0072404543     0.3727215345     -2.3784312067
C     -0.4112100458     1.9124335684     -2.988374259
C     1.8138346304     1.4782238072     -2.1223317989
C     0.8101213544     2.4221436495     -2.5203373006
C     2.9601689512     0.8938974211     0.0303047254
C     2.6480063668     1.8790644947     -1.0138669467
C     1.8111114858     0.7985497723     2.194351749
C     2.6877509865     1.5084140616     1.3312655814
C     -0.6180448265     0.6795256618     2.8037287348
C     0.6052221543     1.4890355947     2.6954757175
C     -2.710817789     0.2608698594     1.5618621904
C     -3.1290557963     0.5037614645     0.1856258948
C     -1.8574933855     1.189129259     2.2076322695
C     -2.4203431461     1.6630851349     -1.8318845885
C     -1.5074976331     2.6266106125     -2.3012639133
C     -2.8529194308     1.741109459     -0.4611550006
C     0.494208515     3.6218049474     -1.7080328852
C     -0.9811079775     3.6620462137     -1.5167175867
C     2.4499966285     3.1041782052     -0.3789845059
C     2.479192147     2.8805015061     1.0791528052
C     1.338740534     3.9833827561     -0.6687650102
C     0.451315641     2.8721668649     2.4402855215
C     1.4448265463     3.5882914364     1.668559112
C     0.7535387225     4.3478091808     0.6227097798
C     -1.8738683559     2.5260349897     1.7024990491
C     -2.3683330594     2.8196516868     0.3322479822
C     -1.512756752     3.8373697835     -0.2080282607
C     -0.8344159997     3.398208153     2.0112735677
C     -0.6095212849     4.2458717853     0.8442173568


