60

 C     -0.9615227762     -4.5520710406     0.0894584501
C     -2.1106704092     -3.7382304554     0.3954904671
C     -2.5390016126     -3.1159062622     -0.7814005382
C     -0.5198810061     -4.1587234558     -1.253344784
C     -1.5134116698     -3.3654756986     -1.8303211825
C     0.8231774404     -3.6326743847     -1.2065799743
C     0.059241494     -4.1149702676     0.9452377198
C     1.2450476732     -3.7611923846     0.1892656972
C     -1.7833533406     -2.8456524389     1.5108852625
C     -0.4330705597     -3.1380927705     1.9083452276
C     -2.2547990157     -1.5033244817     1.5544236333
C     -2.8846156859     -1.7535001509     -0.8158713568
C     -2.9333916167     -0.9613941823     0.380270796
C     -1.2094252972     -2.1206381995     -2.4245965163
C     -2.1926872976     -1.1572817023     -1.9305348655
C     1.1861756967     -2.4458102427     -1.9115528837
C     0.1329898252     -1.6661978256     -2.5732182571
C     2.3709498451     -1.7178208119     -1.4352416688
C     2.1200227517     -2.8589408879     0.7433834396
C     2.8541470445     -1.9524065185     -0.113227273
C     0.4366272281     -2.1232062399     2.4078004128
C     1.7973868395     -2.1420388799     1.9636008558
C     -1.5291568854     -0.5641233606     2.4023827886
C     -0.1485110095     -0.8451246152     2.7976000827
C     -1.97502724     0.776435156     2.3877690887
C     -3.0628420673     0.4562247814     0.2030831432
C     -2.8596423173     1.2593772213     1.3627876279
C     -2.0356806562     0.229687726     -2.0520256988
C     -2.7727671693     1.0649928522     -1.1036395047
C     0.3113779825     -0.2364309437     -2.8253127862
C     -0.8258770683     0.6945787409     -2.7008410221
C     2.6395224952     -0.4253943048     -1.9800402773
C     1.6080681696     0.3044808127     -2.7064947663
C     3.4015555787     0.5272740351     -1.2523993865
C     3.3219290511     -0.858799468     0.7066325692
C     2.5788251812     -0.93994526     1.94948834
C     3.5985330409     0.3851669068     0.1411577033
C     0.7312734671     0.266387495     2.9918835447
C     2.0806764903     0.2294779791     2.517642106
C     -1.0903779838     1.8906541     2.7492102932
C     0.2741542335     1.6304112205     2.8823367772
C     -2.6467841761     2.6768101729     1.2417731864
C     -1.4780666868     3.048923062     2.0623769256
C     -2.5574328044     2.4683634903     -1.1766584736
C     -2.548253515     3.2844821248     0.0221658837
C     -0.5767366079     2.0968556132     -2.6318788236
C     -1.4764521925     2.9355444821     -1.9652345295
C     1.828574086     1.7260548494     -2.4614900596
C     2.8642086477     1.8459642507     -1.49960871
C     0.7713182732     2.6053973601     -2.3717266046
C     3.1154248659     1.6242952933     0.7692799427
C     2.377323221     1.5401981152     1.9326566502
C     1.2373023305     2.4144915125     2.1521275544
C     2.6583378685     2.5401686387     -0.2821393811
C     -0.5685084816     3.8015657191     1.2660330398
C     -1.2925005798     4.0942618459     0.040370151
C     -0.6792376839     3.9102955187     -1.1658236725
C     0.7045129493     3.5758251053     -1.298111272
C     0.8221101728     3.4044140816     1.1983965487
C     1.5088913693     3.3863069715     -0.1160015405


