60

 C     2.3479303291     -3.5519982246     -0.5066234964
C     1.1248285658     -3.9175379277     -1.0365042277
C     0.2238528156     -4.1559262527     0.0876374049
C     2.1655962387     -3.2961626787     0.9705372716
C     0.8317278587     -3.5436326603     1.2767054181
C     2.7753421872     -2.0472740617     1.2618321055
C     3.0397605076     -2.4778182958     -1.0373788355
C     3.4969912759     -1.6510226201     0.0889502543
C     2.4141774754     -1.5929642899     -1.9680011036
C     0.4331756902     -3.0442793726     -1.9516758868
C     1.0336359144     -1.7978201654     -2.3669197132
C     -1.0462942508     -3.7959312059     -0.283408004
C     -0.9572973534     -3.0665516789     -1.5737240417
C     -1.9060526057     -3.2936353479     0.7241976597
C     0.0680789993     -2.5495040529     2.0384521032
C     -1.3197390699     -2.5864936745     1.8836641568
C     2.0739666559     -1.02026718     2.0147375085
C     0.695040916     -1.2612865617     2.3949019584
C     2.5607827213     0.3439088941     1.8658765214
C     3.5061413999     -0.3226789153     -0.3116681522
C     2.8486256842     -0.2635705325     -1.6032907985
C     3.2944657262     0.7071848389     0.6420393428
C     2.1341154649     0.8859428571     -1.9732066966
C     0.1703611048     -0.6272835386     -2.574313442
C     0.7864223798     0.7172792268     -2.5574654246
C     -1.8263605098     -1.9947053835     -1.8314639568
C     -1.2719515835     -0.7437572473     -2.3867557453
C     -3.0147267015     -2.5976823529     0.3118383681
C     -3.0334314053     -1.9449863767     -1.0069942044
C     -2.1926526893     -1.4371668281     2.1534370573
C     -3.3368805091     -1.580550265     1.3055643837
C     -0.1837023351     -0.1097518171     2.6376616371
C     -1.6383955712     -0.1616742154     2.3919932529
C     1.7935319207     1.3759673316     2.4560516267
C     0.405583816     1.1591984554     2.7245221347
C     1.9271454198     2.7443170182     2.0266449749
C     3.104740815     1.9770812726     0.0637519724
C     2.4827459481     2.0682413954     -1.257843016
C     2.5594563264     3.0365390815     0.8373248896
C     1.6127833548     3.2262316134     -1.2777656207
C     1.6498959422     3.8483424004     -0.0002499267
C     -0.0201005471     1.8670040661     -2.5878009506
C     0.3941541818     3.1306064827     -1.9820598292
C     -2.0730654795     0.4724164736     -2.2632847051
C     -1.459801896     1.7459535439     -2.4351858346
C     -3.6948770756     -0.73400972     -0.8259841684
C     -3.842762845     -0.4898859916     0.6357780918
C     -3.2302204378     0.4631623608     -1.4007524108
C     -2.3262368853     1.0338575744     1.8351868981
C     -3.3905821839     0.8119482845     0.9067481637
C     -3.3424318094     1.5033859598     -0.3812053245
C     -0.3252934759     2.4006875483     2.3548424601
C     0.5977677126     3.3711898977     1.9877683015
C     0.4518377532     4.0785930294     0.7286389787
C     -1.6168083333     2.3010083679     1.7118194672
C     -0.7615546329     3.6849157723     -1.3662591674
C     -1.906956989     2.8864673989     -1.7091796582
C     -2.6487815378     2.6731003692     -0.5146204502
C     -0.7771444027     3.9651366403     0.0424496831
C     -1.860560286     3.1781411803     0.6100307452


