60

 C     0.7964092511     -4.6173394328     -0.8398111306
C     0.2788040551     -4.7405685844     0.4306525772
C     -1.1149552265     -4.3171379247     0.4377150639
C     -0.226341803     -4.054907582     -1.7087204013
C     -1.4563191731     -3.944118247     -0.9299496069
C     0.3131807176     -2.8710919679     -2.2547029678
C     1.9278344962     -3.6907536472     -0.7727388137
C     1.6774178707     -2.6706146135     -1.7124693903
C     1.0589911958     -3.935052516     1.3716873355
C     2.1333105374     -3.3030566361     0.6027959521
C     -1.2182177493     -3.338362846     1.4420313603
C     0.1476129492     -3.0764549668     1.9946874739
C     -2.0997748448     -2.2313883827     1.3160621199
C     -2.2166760806     -2.7991615681     -1.0976742289
C     -2.7453501658     -2.089411212     0.0515483342
C     -0.4832296312     -1.6942001596     -2.4826065333
C     -1.8277617415     -1.7437653647     -2.03072382
C     0.1553286887     -0.3939848932     -2.587392633
C     2.1662251467     -1.3644135664     -1.4968804137
C     1.535035561     -0.2367579056     -2.183438883
C     2.5034603182     -1.989374913     0.8847947298
C     2.8251908948     -1.1129273431     -0.2385047187
C     0.5160609981     -1.7386716645     2.3830907716
C     1.8592911668     -1.3075190025     2.0300481222
C     -1.8624104825     -1.026519957     2.1178907347
C     -0.5068874062     -0.7485845492     2.6364648225
C     -2.6918675906     0.0749647654     1.855722378
C     -3.1556295098     -0.7862863489     -0.3852831421
C     -2.5098522006     -0.5294215472     -1.6698812117
C     -3.2918498198     0.2265146989     0.5205133174
C     -0.6998787259     0.8015781548     -2.6194771215
C     -2.0381417749     0.7404247174     -2.0021037666
C     -0.0768900611     2.04672962     -2.7198679221
C     2.0831230092     1.0932635755     -1.9783544077
C     1.335613212     2.2076750403     -2.4406645691
C     3.2027101885     0.2170839038     0.0534311595
C     2.9710912072     1.3039211672     -0.8686318193
C     2.2118440667     0.023991484     2.2612270451
C     3.1527170292     0.6927569875     1.3864430207
C     -0.1036959439     0.6446111425     2.8593720176
C     1.2613506897     0.9965565613     2.6851265593
C     -2.3364723402     1.3889363416     2.2548398898
C     -1.0464244736     1.7121191808     2.6815956784
C     -3.116130887     1.5968902727     0.0894137693
C     -2.5192522744     1.8883192837     -1.1963935246
C     -2.7140878314     2.3365288631     1.2207016941
C     -0.7527717335     3.2531987728     -2.2450150058
C     -1.8461465384     3.1211216015     -1.3048832896
C     1.4525061749     3.4850277241     -1.7774334914
C     0.1959764453     4.1642548516     -1.7740433693
C     2.8320391347     2.493315309     -0.0627316214
C     2.823145176     2.0687463311     1.3327439492
C     1.6527928212     2.2879374823     2.0939884968
C     2.0048439772     3.5303437036     -0.4620966567
C     -0.6678308021     3.0053988339     2.0517289496
C     -1.7435317281     3.3666575105     1.1517291409
C     -1.4567305949     3.8957333817     -0.117784602
C     -0.1468355411     4.4125715641     -0.3741842923
C     0.6707273124     3.2653144886     1.6828882605
C     0.9273106844     4.009359927     0.4535089307


