60

 C     4.5782882933     1.2699333604     0.5387192895
C     4.2105212726     0.4964950083     1.7101391283
C     4.3551247908     -0.8841567564     1.3921789056
C     4.5813366531     0.3293237904     -0.5792919969
C     4.4994352868     -0.9749542347     -0.1051667614
C     3.6207709404     0.7554969129     -1.5740588077
C     3.5233267736     2.1488405368     0.2780248067
C     2.9936269446     1.9392810796     -1.0496748163
C     2.9438550998     0.9602854979     2.2180078749
C     2.5366697878     2.0554378253     1.336005346
C     1.9268637024     0.0307359751     2.6463111467
C     3.3595535987     -1.7678404876     1.7510663822
C     2.1804097729     -1.3684317942     2.4465828361
C     3.4953811372     -1.8822870522     -0.6000361824
C     2.9067741425     -2.4952242107     0.5377781624
C     2.7885003236     -0.188109978     -2.253596599
C     2.6209824661     -1.5338224581     -1.7022998141
C     1.6781525531     0.403431741     -2.925572209
C     1.6289838896     2.2759116033     -1.3378744528
C     1.0781627133     1.6751290458     -2.4742951625
C     1.1881685147     2.3414059387     1.0940010714
C     0.7195797857     2.648697265     -0.2612458139
C     0.5465357757     0.4735395971     2.6297695367
C     0.2352436994     1.7605026165     2.028661283
C     -0.5465357757     -0.4735395971     2.6297695367
C     1.0913514802     -2.133017416     1.8826374545
C     1.5400941799     -2.7474643003     0.6406296458
C     -0.2352436994     -1.7605026165     2.028661283
C     1.2809196162     -2.1319550143     -1.7357933447
C     0.6925258938     -2.6881646765     -0.509228389
C     0.6209382471     -0.3927537312     -3.3292786671
C     0.35174166     -1.6292493967     -2.693099853
C     -0.35174166     1.6292493967     -2.693099853
C     -0.6209382471     0.3927537312     -3.3292786671
C     -0.6925258938     2.6881646765     -0.509228389
C     -1.2809196162     2.1319550143     -1.7357933447
C     -1.0913514802     2.133017416     1.8826374545
C     -1.5400941799     2.7474643003     0.6406296458
C     -1.9268637024     -0.0307359751     2.6463111467
C     -2.1804097729     1.3684317942     2.4465828361
C     -2.9438550998     -0.9602854979     2.2180078749
C     -1.1881685147     -2.3414059387     1.0940010714
C     -0.7195797857     -2.648697265     -0.2612458139
C     -2.5366697878     -2.0554378253     1.336005346
C     -1.0781627133     -1.6751290458     -2.4742951625
C     -1.6781525531     -0.403431741     -2.925572209
C     -1.6289838896     -2.2759116033     -1.3378744528
C     -2.6209824661     1.5338224581     -1.7022998141
C     -2.7885003236     0.188109978     -2.253596599
C     -2.9067741425     2.4952242107     0.5377781624
C     -3.3595535987     1.7678404876     1.7510663822
C     -3.4953811372     1.8822870522     -0.6000361824
C     -4.2105212726     -0.4964950083     1.7101391283
C     -4.3551247908     0.8841567564     1.3921789056
C     -4.4994352868     0.9749542347     -0.1051667614
C     -3.5233267736     -2.1488405368     0.2780248067
C     -2.9936269446     -1.9392810796     -1.0496748163
C     -3.6207709404     -0.7554969129     -1.5740588077
C     -4.5782882933     -1.2699333604     0.5387192895
C     -4.5813366531     -0.3293237904     -0.5792919969


