60

 C     -0.8682490774     -4.6856744078     0.1841147632
C     0.5623968528     -4.6056730554     0.0913866228
C     1.0256234643     -4.0516279331     1.298894939
C     -1.2922573486     -3.9703462445     1.4082214494
C     -0.1375307412     -3.6417792712     2.1252010635
C     -2.2150983071     -2.935285012     1.0672789217
C     -1.408353044     -3.983481712     -0.8941000855
C     -2.3894691618     -3.0429743089     -0.3952491288
C     0.8900393072     -3.9012248759     -1.1474495873
C     -0.3571658448     -3.490311345     -1.7819431448
C     1.9338115933     -2.9829770921     -1.1478707414
C     1.9691946813     -2.9912265286     1.3292040879
C     2.5599880477     -2.5634364275     0.1272776354
C     0.0887703059     -2.311229314     2.5598860529
C     1.4623687532     -1.9471251075     2.2026787736
C     -2.1041517596     -1.6313763284     1.6399418146
C     -0.9263919648     -1.3119153606     2.43775313
C     -2.7277142938     -0.5121007196     0.9260219228
C     -2.6029969349     -1.9104119772     -1.1187349403
C     -3.0148111745     -0.709748781     -0.4462113251
C     -0.4841225823     -2.2126933029     -2.4034038059
C     -1.7311587072     -1.5120136489     -2.2331920436
C     1.8868267731     -1.8101559325     -1.9770128985
C     0.6864220261     -1.3566559724     -2.5989788658
C     3.0057626896     -1.2216994736     -0.0019698646
C     2.7966494453     -0.8401154447     -1.3959715044
C     1.8322287988     -0.6128075681     2.0539909872
C     2.7605054228     -0.2325255117     0.9872283831
C     -0.5163065726     0.0740460333     2.5960661801
C     0.8966048339     0.3876637682     2.5471620253
C     -2.5467888278     0.8546050927     1.3852733271
C     -1.4801277296     1.1475144994     2.3608156698
C     -2.9132356015     1.8988110162     0.4849993835
C     -2.8099878673     0.3549997614     -1.3776655409
C     -1.837241691     -0.1128222334     -2.3679939398
C     -2.8348559115     1.6381484349     -0.9394752327
C     0.5419960988     0.0912508784     -2.8534484326
C     -0.746415184     0.7514528353     -2.730268573
C     2.7611695051     0.4558511473     -1.7758323721
C     1.6947803379     0.9171600091     -2.6517543181
C     2.8911199393     1.1752556187     0.6095638893
C     3.036515818     1.5086248263     -0.7906343058
C     1.3014585114     1.7397490574     2.4482877698
C     2.2951897777     2.1596227798     1.4284942181
C     -1.0347171133     2.4905590142     2.5163875243
C     0.3700496804     2.7570970292     2.6168350014
C     -2.4034326576     3.219712569     0.64501594
C     -1.5603970185     3.553719774     1.6760414538
C     -1.9683060753     2.6356622164     -1.5648852434
C     -0.8542737749     2.1780200273     -2.3712870267
C     -1.8201171514     3.6758640609     -0.6384612987
C     1.5706369611     2.2903313804     -2.3923409743
C     2.479222284     2.6868310663     -1.2927820568
C     0.3451290289     2.9542780101     -2.2192524013
C     1.8678442999     3.4430018916     0.9184860132
C     0.7213871639     3.8467400087     1.6934644728
C     -0.4316570297     4.3218187108     1.1075091732
C     -0.5658448473     4.3077372443     -0.3489893463
C     1.8220703519     3.6373904151     -0.4863725136
C     0.5274132419     3.9378958139     -1.1299512764


