60

 C     0.7988761662     -4.7336399357     0.2413832404
C     -0.1384619895     -4.3989362684     1.3147562378
C     -1.4377905736     -4.3485649915     0.759916029
C     0.0814739575     -4.4506070742     -1.002821518
C     -1.2686259836     -4.2823521971     -0.7387750104
C     0.7809116022     -3.4084794092     -1.7377439242
C     1.8324648116     -3.8109025165     0.2992326401
C     1.9490226131     -3.0973751968     -0.9617745047
C     0.3561303065     -3.2626131505     2.0509710346
C     1.6458942578     -2.9422160549     1.460674049
C     -0.5091687231     -2.1579492355     2.4037059257
C     -2.2747254807     -3.3076231182     1.1088199424
C     -1.8785599476     -2.2463663937     1.9843645129
C     -1.9836972554     -3.1232002032     -1.2111283245
C     -2.7875790389     -2.6702358857     -0.1199468211
C     0.0711034535     -2.3283014754     -2.3598879776
C     -1.3516512965     -2.1239922323     -2.0490982595
C     0.8622199555     -1.1757201511     -2.6383610852
C     2.5462801065     -1.8172327989     -0.9795486833
C     2.1521303588     -0.9668844208     -2.0309712042
C     2.1724282594     -1.6477660429     1.4759102209
C     2.9183702673     -1.1817562936     0.2912813412
C     0.0732548113     -0.8286453523     2.5612994494
C     1.4887035044     -0.6459128275     2.2913853207
C     -0.7618783794     0.3633281181     2.4668000405
C     -2.4953699433     -1.0455999927     1.4794313637
C     -2.9856205206     -1.3246451399     0.1220942995
C     -2.0367787129     0.2240567718     1.7854712324
C     -1.8492935515     -0.7613066398     -1.9880525704
C     -2.7050884943     -0.3640294663     -0.8843066759
C     0.2919913839     0.1145238082     -2.8667174652
C     -1.0874847595     0.3318956387     -2.6002998322
C     2.405904248     0.4553685077     -1.9981889399
C     1.269650575     1.1473873907     -2.5755749628
C     3.2955543772     0.1586299105     0.2569491157
C     3.0664342751     1.0101638281     -0.9277542608
C     2.0325777028     0.6614825384     2.2971619522
C     3.0610891891     0.9908491689     1.3792358647
C     -0.1923993466     1.7050172456     2.5416607579
C     1.2174604024     1.8436482361     2.5109130416
C     -0.9874328327     2.8278206754     2.1018678684
C     -2.5469115685     1.3167559269     0.9408685319
C     -2.8055074445     1.0069100693     -0.4655756454
C     -2.1920568667     2.6196184732     1.2987468705
C     -1.4608546755     1.6667382749     -2.3784233465
C     -2.5039215631     2.0151458466     -1.4215509428
C     0.9102292795     2.4548055215     -2.2031922689
C     -0.4961778736     2.7649145084     -2.3474266362
C     2.707517478     2.3543846095     -0.484148057
C     2.8088097912     2.3401929296     0.9330780857
C     1.8026392017     2.9295937455     1.7370560059
C     1.6777452805     3.1288273773     -1.1257868061
C     -0.3673979536     4.0173759216     1.5852654028
C     1.0021244266     3.9064899666     1.1495597985
C     0.9939265171     4.0817481211     -0.2982350269
C     -2.2486033996     3.6906824277     0.3240656298
C     -2.3380299983     3.3580529373     -1.0449684757
C     -1.0741753363     3.8355515885     -1.6392615144
C     -1.1581344791     4.6060811346     0.5553966699
C     -0.3495404711     4.5248132465     -0.6298016359


