60

 C     -2.0731554915     -3.5484896175     -0.6350896874
C     -1.5222379605     -3.8786897704     0.5942517285
C     -0.1147776666     -4.2370154533     0.3992183495
C     -0.9820292153     -3.6000371521     -1.6359335815
C     0.2089255094     -4.0749753823     -0.9924566029
C     -0.9907684309     -2.3784131821     -2.3129857271
C     -2.8033898048     -2.3360700021     -0.8027943901
C     -2.196026437     -1.6222501843     -1.9041775898
C     -3.1626053531     -1.6027329148     0.3421382887
C     -1.6076318955     -2.9527127606     1.6957139568
C     -2.4942919875     -1.8966086434     1.6002876677
C     0.6449154061     -3.5773539432     1.3932289115
C     -0.2353677079     -2.7163480279     2.1842162367
C     1.9383702548     -3.1140645056     1.0684150407
C     1.4301610655     -3.4596865662     -1.3254552869
C     2.3652835564     -3.2125797317     -0.2881494034
C     0.2428354937     -1.6529335831     -2.5833111596
C     1.4485888086     -2.2640477542     -2.1760885205
C     0.1798116068     -0.1965211927     -2.7623948294
C     -2.2343797956     -0.2358874328     -1.9876756569
C     -1.124457461     0.4629677761     -2.676108536
C     -3.2776452656     -0.1879928639     0.2514286051
C     -2.9758580918     0.4951543178     -0.944478401
C     -2.1729283781     -0.629548933     2.2299530237
C     -2.8252571686     0.4071236542     1.5174490175
C     0.178738572     -1.4462831304     2.6249396331
C     -0.8660903618     -0.4072184826     2.8034430769
C     2.4128415615     -1.8547192814     1.6043101972
C     1.5764247422     -1.0080372518     2.3644715811
C     3.1294577089     -2.0257605495     -0.6001989756
C     2.5697390044     -1.4221851628     -1.749992632
C     3.2792219381     -1.2571047568     0.5786590229
C     1.3763103802     0.5963889755     -2.543814552
C     2.5180309023     -0.0092150343     -1.8642670104
C     1.2487517978     2.0206353074     -2.4449033825
C     -1.1843190773     1.8695424031     -2.6948079491
C     0.0121661186     2.6308138824     -2.678682207
C     -2.8046245368     1.9137805909     -0.8451942555
C     -2.1362624963     2.5972332253     -1.8435095134
C     -2.400531395     1.7594370254     1.6112168199
C     -2.5415839663     2.58144544     0.4582768743
C     -0.4907384292     0.9271679185     2.9860438862
C     -1.3227047413     2.0313386009     2.5186249825
C     1.900192588     0.4332811099     2.4077416981
C     0.9076863168     1.345395742     2.8875523218
C     3.3743892802     0.1135871863     0.4508241387
C     3.1540783972     0.7444227405     -0.8215808701
C     2.8431167226     0.9778003664     1.4825062754
C     1.9447150822     2.7862430587     -1.3984214085
C     2.7911973347     2.1135682544     -0.5434697222
C     2.6673596305     2.2876267607     0.8990000245
C     -0.1544144291     3.7391098772     -1.7249410882
C     -1.4397240037     3.7202892801     -1.2260938209
C     -1.6555681234     3.680092502     0.2063549765
C     1.009893572     3.7859973511     -0.8732743565
C     -0.4661452142     3.1217829678     2.2546661075
C     0.9115968819     2.695323272     2.4882323403
C     1.703163509     3.159701714     1.4076694072
C     -0.5427587684     3.8852520796     1.0661236867
C     0.8303099116     3.9229795666     0.5032934395


