60

 C     0.9405528534     -5.0986094144     0.
C     2.0723958531     -4.3273585814     0.
C     2.1385292963     -3.45290206     1.1727860148
C     0.1709707624     -4.6440569492     1.1813960315
C     0.9149327011     -3.5824528565     1.8959022552
C     -1.1150817367     -4.3602081552     0.7545187707
C     0.1709707624     -4.6440569492     -1.1813960315
C     -1.1150817367     -4.3602081552     -0.7545187707
C     2.1385292963     -3.45290206     -1.1727860148
C     0.9149327011     -3.5824528565     -1.8959022552
C     2.5736366334     -2.1805662211     0.7433741259
C     2.5736366334     -2.1805662211     -0.7433741259
C     2.1060788806     -1.0311429466     1.3925854051
C     0.250562106     -2.3909782401     2.3382178307
C     0.9891104905     -1.1241152061     2.3024730851
C     -1.7904010834     -3.191314101     1.1636981301
C     -1.197794183     -2.2855570124     2.1187770506
C     -1.7904010834     -3.191314101     -1.1636981301
C     -2.4246883413     -2.5983818221     0.
C     0.250562106     -2.3909782401     -2.3382178307
C     -1.197794183     -2.2855570124     -2.1187770506
C     2.1060788806     -1.0311429466     -1.3925854051
C     0.9891104905     -1.1241152061     -2.3024730851
C     2.3409159245     0.2322357962     0.7081137276
C     2.3409159245     0.2322357962     -0.7081137276
C     2.0839306418     1.4601295409     1.414968906
C     0.3335979333     0.1329631423     2.6202180014
C     1.0109856183     1.4249566091     2.395084996
C     -1.7855687341     -1.0105606948     2.1809774267
C     -1.0753062351     0.1331473206     2.6808257754
C     -2.8722566403     -1.2583812169     0.
C     -2.7413139423     -0.5193790901     1.2084055438
C     -1.7855687341     -1.0105606948     -2.1809774267
C     -2.7413139423     -0.5193790901     -1.2084055438
C     0.3335979333     0.1329631423     -2.6202180014
C     -1.0753062351     0.1331473206     -2.6808257754
C     2.0839306418     1.4601295409     -1.414968906
C     1.0109856183     1.4249566091     -2.395084996
C     2.3900215532     2.6577722712     0.7271492846
C     2.3900215532     2.6577722712     -0.7271492846
C     1.8148313538     3.9231617081     1.1462319299
C     0.2526251873     2.6283992795     2.5364544768
C     0.6823706941     3.8555208025     1.985279651
C     -1.797496186     1.3126568543     2.2661174906
C     -2.6894980668     0.9131048337     1.2037183699
C     -1.1756067192     2.527063755     2.2315307681
C     -2.6894980668     0.9131048337     -1.2037183699
C     -1.797496186     1.3126568543     -2.2661174906
C     -2.7104343166     1.6978423207     0.
C     0.2526251873     2.6283992795     -2.5364544768
C     -1.1756067192     2.527063755     -2.2315307681
C     1.8148313538     3.9231617081     -1.1462319299
C     1.5344005218     4.7390646944     0.
C     0.6823706941     3.8555208025     -1.985279651
C     -0.435010649     4.4513540508     1.2068749607
C     -1.5108005429     3.5313957805     1.2224503489
C     -2.1216189189     3.0461586161     0.
C     -1.5108005429     3.5313957805     -1.2224503489
C     0.1032050926     4.9784091819     0.
C     -0.435010649     4.4513540508     -1.2068749607


