60

 C     -0.7514902099     -4.2917026092     0.4002876564
C     -0.6414528745     -4.0468446044     -0.9473640751
C     -1.7681318076     -3.1880063048     -1.3673934742
C     -1.9854993552     -3.5886606564     0.8684352603
C     -2.5318879864     -2.8146515832     -0.2306384841
C     -1.6624891339     -2.9486720302     2.0315358525
C     0.3410740373     -3.9458673754     1.2899578196
C     -0.2332532315     -3.1789861673     2.3513307899
C     1.5470519448     -3.4842647506     0.7277473054
C     0.5604569104     -3.5096875919     -1.5412885023
C     1.6762691778     -3.3145395398     -0.7157375774
C     -1.2685439421     -2.23853354     -2.2716743257
C     0.1656108517     -2.442595074     -2.439449847
C     -1.8435939657     -0.9349451346     -2.2941003793
C     -2.893770661     -1.4382806327     -0.0522311238
C     -2.7594774934     -0.5623002795     -1.2113937705
C     -1.9729240534     -1.5667045632     2.2422258324
C     -2.7073837728     -0.8222408595     1.2625009986
C     0.2926964205     -1.9466194551     2.7484750948
C     -0.8116272275     -0.9687847445     2.8089768045
C     2.2222820048     -2.3465081819     1.3275099739
C     1.5785675522     -1.5073145729     2.2868835894
C     2.5530322036     -2.1859277175     -0.9721368622
C     3.0257606807     -1.7199208431     0.3055393297
C     1.0047922486     -1.328735923     -2.6997921423
C     2.2978904374     -1.2378454892     -2.0158767231
C     -1.0544345155     0.0703904925     -2.9113184846
C     0.351722587     -0.1149272965     -3.0787271679
C     -1.3175737614     1.4754940367     -2.6848918605
C     -3.0160192531     0.8089062364     -1.0205529345
C     -2.399997428     1.8396040239     -1.8782137431
C     -2.6830833054     0.6101562482     1.4060606631
C     -3.1584851572     1.3729468601     0.2906905069
C     -0.5920632535     0.4196716856     2.765495418
C     -1.7115455978     1.2468178724     2.3062029628
C     1.8607619691     -0.0632045027     2.3213404133
C     0.7876288634     0.8845087771     2.6957196559
C     3.4568887704     -0.4124772285     0.4635107815
C     2.9307522064     0.4241299391     1.5385897715
C     2.8957579509     0.0604629611     -1.8797711206
C     3.5775141289     0.3967445195     -0.6958252424
C     0.9605999424     1.1918237702     -2.8736245858
C     -0.0774815102     2.1835771186     -2.5911734639
C     2.2003171575     1.2859482807     -2.2945447776
C     0.1128054374     3.2602295553     -1.6614780584
C     -2.3043092945     3.0363003795     -1.1564924878
C     -2.8590735295     2.7695824728     0.1901839631
C     -1.0867191707     3.754947986     -1.0163889602
C     -1.4736279718     2.6487772425     2.1832899096
C     -2.1044942733     3.4229577091     1.1226060778
C     -1.043758249     4.1557979487     0.3858456617
C     0.9675430065     2.2659948756     2.4088816081
C     -0.1432781183     3.1143449126     2.2668024802
C     0.114140627     3.9867145236     1.0913121271
C     2.9412455301     1.7947327732     1.0418296969
C     3.2762932343     1.7707770868     -0.3404556177
C     2.430542309     2.3497532687     -1.3071661095
C     1.3917539607     3.2656452572     -0.9149067126
C     1.9848693826     2.7012527791     1.4462661681
C     1.350847971     3.5807577587     0.4885743409


