60

 C     -1.9513428829     -3.909220578     0.1122374934
C     -1.6638330515     -3.5501588183     -1.2760410695
C     -0.2548486724     -3.5523980062     -1.4819466329
C     -0.7588937003     -4.0382457828     0.79748289
C     0.307405814     -3.9940171363     -0.1925087604
C     -0.7392460699     -3.0315591717     1.8826300922
C     -2.7216509221     -2.8317537879     0.6865188712
C     -1.9958590778     -2.3096810565     1.8031269911
C     -2.4352186618     -2.3982721548     -1.5862407935
C     -3.0978308876     -1.9346763554     -0.3491005244
C     -1.8572911295     -1.4318095585     -2.4010068957
C     0.3903922637     -2.4671805633     -2.1862823656
C     -0.461739009     -1.4842272413     -2.7418822025
C     1.7772637485     -2.0540296242     -1.8236072964
C     1.5022745061     -3.4927814827     0.1967937961
C     2.3607174116     -2.74930237     -0.7241705852
C     0.450710467     -2.3628397853     2.2011919036
C     1.6480674448     -2.8618496815     1.5359648948
C     0.4207531831     -0.9434121165     2.6052661278
C     -2.0529924957     -0.9357934894     2.0982217602
C     -0.8686995598     -0.2973933645     2.6683592621
C     -3.2423856924     -0.5564716443     -0.0676349372
C     -2.9585803464     -0.1133764542     1.2874072586
C     -2.2259650843     -0.0463325201     -2.2526976488
C     -2.9929324028     0.4004603842     -1.1609778045
C     -0.0242061274     -0.1098963194     -2.9493577915
C     -1.1281918956     0.7643380084     -2.7475793827
C     2.2520613638     -0.6858692661     -2.1105048034
C     1.3189709357     0.3056032098     -2.6884595339
C     3.3132046455     -0.1504721739     -1.3077267745
C     3.3229810466     -2.1174798624     0.1078362318
C     2.7728302583     -2.0834629731     1.4884113878
C     3.7900275507     -0.8715262825     -0.179515848
C     1.6188672448     -0.1061534862     2.4555437668
C     2.8111795882     -0.7182483293     1.9519257273
C     3.6232237207     -0.0049935401     1.0211430449
C     1.5003777358     1.3522179865     2.2732377714
C     -0.9053074017     1.1255820829     2.8231829588
C     0.2715319686     1.9523595584     2.6044898501
C     -2.980108482     1.277126722     1.5492829997
C     -2.059605462     1.8481204753     2.4607413077
C     -2.9063126406     1.8024742236     -0.8453472526
C     -3.1206546611     2.2210806896     0.4660853995
C     -0.9577284646     2.1334342836     -2.361695232
C     -1.91006829     2.6906997414     -1.4676831386
C     1.5031254718     1.6992544887     -2.4723796747
C     0.3881030962     2.62186568     -2.3389822691
C     3.2834511711     1.2375137714     -0.8823607121
C     3.322191877     1.2762657168     0.591501052
C     2.3608660687     2.0678735891     1.3114668564
C     2.5275869784     2.1708256489     -1.544540881
C     0.7444591701     3.6120485903     -1.3716111913
C     1.8452097073     3.1959598535     0.6104721741
C     2.0165626537     3.2778389605     -0.8149112943
C     -0.1673599726     3.1988112191     1.9952325222
C     -1.6037182748     3.1374744167     1.9071030359
C     -2.2666389821     3.3859417837     0.7216558441
C     -1.5141575445     3.6742649657     -0.4719179507
C     0.5384967418     3.7475388402     0.9254273113
C     -0.1595256884     4.0179102865     -0.3412696359


