60

 C     0.457368514     -4.0720073088     1.5415898705
C     -0.0860529269     -4.23294365     0.2173806954
C     0.8658849561     -3.7798858423     -0.7518201789
C     1.714732158     -3.4636089222     1.4372943853
C     2.0527420109     -3.402159035     0.026950177
C     1.7054657698     -2.2199191635     2.1847374213
C     -0.4190804569     -3.1835530531     2.2544016776
C     0.3564728413     -2.0337632828     2.6707015861
C     -1.4236462447     -3.7117136457     0.2241229554
C     -1.6032737106     -2.9847461792     1.5102036741
C     -1.9022917366     -3.1430267632     -0.9294358479
C     0.4307568018     -2.9439638997     -1.8399682357
C     -0.9839374504     -2.8463016805     -2.0272574289
C     1.2594539775     -1.7993694387     -2.2782393907
C     2.8249079548     -2.3621260761     -0.3931019537
C     2.5377678983     -1.6753781812     -1.6665577798
C     2.4612761297     -1.1093108427     1.74761097
C     3.2451382027     -1.3239475225     0.5502474016
C     1.9879763683     0.2455684799     2.0462766038
C     -0.227728067     -0.7569544949     2.7024442791
C     0.6424370049     0.4216140362     2.5607454379
C     -2.2672419813     -1.7341674909     1.5494300605
C     -1.6464129555     -0.6679089824     2.3431350573
C     -2.8838913935     -2.0614815637     -0.847278538
C     -3.1089276902     -1.3693980042     0.399378344
C     -1.5149288049     -1.7014252673     -2.6508306183
C     -2.7654276653     -1.3073511901     -2.0272184531
C     0.6427310229     -0.5456669463     -2.7623001868
C     -0.7664883722     -0.5411306943     -2.9544964621
C     1.2600520148     0.7626909243     -2.5650436963
C     3.1733757877     -0.4325902864     -1.6136426379
C     3.60811765     -0.2193990763     -0.2236795606
C     2.5834188077     0.7695881722     -2.0372279611
C     2.6299195796     1.3831465466     1.3581299404
C     3.3768165011     1.1011004062     0.1466891781
C     2.9871682747     1.7984398056     -1.0828042199
C     2.0683153934     2.6721842066     1.4357098542
C     0.0178273885     1.7525526983     2.5240844886
C     0.7685695531     2.8869936737     2.0725654072
C     -2.2061889522     0.6214502164     2.2565032169
C     -1.4010747856     1.8277455743     2.3991847933
C     -3.5457067732     -0.0258814649     0.2917755285
C     -3.2488375843     0.8831759114     1.3351620234
C     -2.8354912072     0.1098512043     -2.038799228
C     -1.5839607852     0.6193480336     -2.6304101819
C     -3.3810402599     0.7441828877     -0.9442131049
C     0.4348347901     1.9750292256     -2.3424285249
C     -1.0318907523     1.8465568164     -2.2452223611
C     2.303971547     2.9690218268     -1.0083542812
C     2.1370316123     3.5641292247     0.2986954537
C     1.0278266191     3.1136239795     -1.7318538042
C     0.1260089519     3.9618962857     1.3779834117
C     0.9627387615     4.3331589381     0.2736540821
C     0.2394420734     3.9998997056     -0.9228793802
C     -2.0013429995     2.8505444304     1.5547383686
C     -3.0190347602     2.2038385174     0.7987582893
C     -2.9188623129     2.0775183435     -0.6008099602
C     -1.7992909648     2.6850490351     -1.2896077443
C     -1.2011492319     3.7709973869     0.8975008971
C     -1.1173458915     3.700183856     -0.5823039094


