60

 C     -1.1835210658     -4.7801802501     0.5947548602
C     -0.372038905     -4.9116488188     -0.558296399
C     0.9267732031     -4.4655611051     -0.2517657556
C     -0.3546913357     -4.0766840572     1.6057164818
C     0.9697188752     -3.9439170376     1.1181497218
C     -1.0114192093     -2.9080554336     2.1068318405
C     -2.1723269965     -3.8261854483     0.2783797248
C     -2.2725770046     -2.8538625402     1.3476843952
C     -0.8525519509     -3.9539981112     -1.5792977821
C     -2.0283258494     -3.3242491575     -1.0946905287
C     1.4032536454     -3.6147375663     -1.3236445231
C     0.2174277628     -3.1533327878     -2.0857813928
C     2.3610282002     -2.7193407632     -1.0148216206
C     1.7257267029     -2.7678160695     1.4009480878
C     2.7130519807     -2.4509284935     0.4028205585
C     -0.3124395938     -1.6909425926     2.3885778556
C     1.1244982003     -1.6428090072     2.1333077201
C     -1.0795971318     -0.4211930803     2.363532795
C     -2.7788721469     -1.6433897547     1.0279461039
C     -2.3531302972     -0.4560022747     1.7473983179
C     -2.2511666159     -1.9459053722     -1.3643629455
C     -2.9873917299     -1.240799967     -0.3619724069
C     0.0596938599     -1.7584528223     -2.3424850159
C     -1.2521252229     -1.1516447219     -2.1136960249
C     2.4379666636     -1.4398253926     -1.7230732205
C     1.2538503986     -0.8771978791     -2.2878863641
C     3.3054553762     -1.2130644612     0.404660014
C     3.2877117271     -0.6248632554     -0.9642444839
C     1.7649015905     -0.3349773906     2.1018230231
C     2.9428490254     -0.1846442045     1.3002957557
C     -0.4333197894     0.8896074411     2.4459273541
C     1.016732484     0.9043654321     2.4018094547
C     -1.1850147374     2.1065565133     2.0901841726
C     -2.7923827871     0.6564982093     0.9873024041
C     -3.0171536955     0.1486441483     -0.3648880234
C     -2.3520737303     1.9579950048     1.2224871936
C     -1.3771905726     0.2783607854     -2.1679892235
C     -2.4622245099     0.9070979652     -1.4268340624
C     1.1208108426     0.5683230843     -2.2719205648
C     -0.2113332245     1.142241704     -2.4489905087
C     3.1276966301     0.7448260984     -0.8636216489
C     3.1737093766     1.0549276917     0.5737225115
C     2.1279271959     1.412660725     -1.6352774197
C     1.6484116114     2.1527103078     2.0951971571
C     2.6356257311     2.2051426874     1.0169578106
C     -0.4994123123     3.3643777979     1.9651213297
C     0.9113066596     3.3375993304     1.9612016797
C     -0.8954874611     4.3570776185     0.9749467991
C     -2.5701551271     2.8537388791     0.1196640183
C     -2.4947114189     2.2916802917     -1.2096938745
C     -1.9159130966     4.1361622613     0.0608639287
C     -0.3452562987     2.5409952974     -2.3645257614
C     -1.6088505096     3.1507586118     -1.9539682053
C     -1.4033519544     4.3628741702     -1.2959848502
C     1.8441573082     2.8002287396     -1.2498777738
C     2.2573415845     3.246168122     0.069416686
C     1.407093224     4.1148369796     0.7924228139
C     0.3293258582     4.7551202961     0.2046476618
C     0.6995280005     3.4166376535     -1.8241567194
C     0.0324321622     4.5179959688     -1.1609534319


