60

 C     -1.1147457633     3.9315734601     -0.8424203071
C     -2.2915530328     3.2161110903     -0.9926466637
C     -2.0918769409     2.2789139457     -2.105268828
C     -0.1583595364     3.4551072542     -1.8601024882
C     -0.7569135179     2.3430115294     -2.568153576
C     1.0838830789     3.3214842815     -1.2533269281
C     -0.4420379677     3.9825303693     0.4188831919
C     0.9683549539     3.7874804168     0.1539596311
C     -1.030184092     3.3073243398     1.5186799168
C     -2.8492566303     2.4575454585     0.0795127719
C     -2.2298305801     2.5204905126     1.3346165195
C     -2.7031671116     1.0501749081     -1.8117769224
C     -3.2005244623     1.1299085184     -0.4550827811
C     -2.1393016767     -0.1506409133     -2.3132585638
C     -0.0341724417     1.1228368997     -2.8053917498
C     -0.773299664     -0.1412354002     -2.8296968713
C     1.9404741889     2.2101798827     -1.6068381047
C     1.3933306131     1.1319672814     -2.4695498351
C     2.9565451404     1.8946932112     -0.6609397123
C     1.7926503355     3.2007733495     1.1027135226
C     2.8886658309     2.4166451499     0.6692466513
C     -0.1747038514     2.5401846348     2.411426194
C     1.196243524     2.5154620414     2.2583649763
C     -2.1053843856     1.2864649476     2.1250327652
C     -0.8517251951     1.3114080643     2.7938378108
C     -3.2445494903     -0.0290597802     0.3531548408
C     -2.7048152137     0.052160511     1.7224222919
C     -2.6531310058     -1.3208146002     -1.6910633361
C     -3.159867542     -1.2639190594     -0.3469530222
C     -1.9774149426     -2.5595844599     -1.823583939
C     -0.0355156538     -1.4078817696     -2.8110032248
C     -0.6646379786     -2.6184411247     -2.321786618
C     2.0795155815     -0.0986655256     -2.4954054668
C     1.3847954367     -1.358339392     -2.7234809531
C     3.4642955863     0.5346382123     -0.5612102437
C     3.1430239297     -0.3698423064     -1.5541336087
C     3.0191044962     1.2787036241     1.5415262456
C     1.9336870814     1.2619937316     2.4531138037
C     3.4206036563     0.1210903126     0.8241734807
C     -0.136241029     0.1006434937     3.0561461614
C     1.2990222681     0.0294253728     2.7791988059
C     -2.1704899322     -1.1210763647     2.2990628328
C     -0.9104814776     -1.0801406265     2.9836519182
C     -2.7719430698     -2.5180312452     0.3312041111
C     -2.0969355765     -3.3389583654     -0.6102025591
C     -2.2766474076     -2.4392530761     1.6376621324
C     0.0496894693     -3.5745917894     -1.4594970572
C     -0.8227516501     -3.9247198445     -0.3411929018
C     2.0770020694     -2.3947965786     -2.0166159155
C     3.046145746     -1.7429141869     -1.1816380628
C     1.4020142611     -3.3702609946     -1.2442669824
C     2.9078025638     -1.1570330234     1.2017165065
C     1.8757826137     -1.217126709     2.2383490854
C     2.886392555     -2.1571745688     0.164701113
C     1.9162928302     -3.2450550925     0.1427590053
C     -0.2551613476     -2.3260959688     2.7354730868
C     -1.1105601418     -3.1938979693     1.9594912444
C     -0.3203701353     -3.8564123404     0.9792035907
C     1.0689992524     -2.3997470675     2.2836120365
C     1.0642331814     -3.4152164622     1.2035911782


