60

 C     0.2130472177     -4.4149841291     0.0926963148
C     -0.787699467     -4.1462845031     -0.8428066826
C     -1.9487820048     -3.6455466903     -0.1106968699
C     -0.2555641244     -3.9863435314     1.449093339
C     -1.5649576732     -3.4857735937     1.2835811418
C     0.7661029313     -3.1586233046     1.989303212
C     1.521825325     -3.9676775957     -0.1016354648
C     1.9091997456     -3.2750554909     1.1297779527
C     1.8406061219     -3.1080009974     -1.1882473923
C     -0.5270238075     -3.2566889651     -1.9348337632
C     0.8130589138     -2.7250110387     -2.1393360239
C     -2.4899274364     -2.569736916     -0.8126671516
C     -1.6471708068     -2.3471352107     -1.9976100794
C     -3.0351839846     -1.4302904203     -0.1101783732
C     -1.9258083783     -2.2950273376     1.9458844921
C     -2.7703523039     -1.3449957546     1.3047457705
C     0.4569232903     -1.8432573673     2.5692681189
C     -0.9149444899     -1.5236210613     2.6623107295
C     1.4323648295     -0.7408702878     2.4652664387
C     2.6507421114     -2.1490845529     0.8019803814
C     2.6904237861     -2.0541812545     -0.6488222022
C     2.5708933014     -0.9489104455     1.5879374332
C     2.8420960302     -0.7921201125     -1.2850781805
C     0.9147886803     -1.4245545715     -2.7216437364
C     1.988902099     -0.4970972731     -2.406397328
C     -1.5283516916     -1.049894868     -2.5516984059
C     -0.2371625869     -0.6375742066     -3.0279054308
C     -3.1267128104     -0.2131543979     -0.8179334741
C     -2.4014765514     -0.0258465998     -2.0710883713
C     -3.1849631227     1.0647990978     -0.1622855206
C     -2.5278399501     -0.039647355     1.8971046127
C     -1.3506645746     -0.1458434588     2.6929614019
C     -2.8420978478     1.1632533723     1.2245200562
C     1.0012743169     0.6365179719     2.7283727015
C     -0.4324754875     0.932039555     2.8207474877
C     1.8488267008     1.7121351999     2.3152596889
C     3.2030163689     0.1621767316     0.9881051069
C     3.2781569827     0.2795692263     -0.4789556772
C     2.9417267339     1.4385272426     1.4722414617
C     3.0073673815     1.6545491864     -0.8390221288
C     2.9489269641     2.4001200363     0.3666005691
C     1.5415545078     0.8292290748     -2.636767667
C     0.1394550713     0.7493124811     -3.016358466
C     2.0435772867     1.944996264     -1.8817162354
C     -2.079521715     1.3562315714     -2.2020052325
C     -2.6956444248     2.059158244     -1.0853328375
C     -0.7751278485     1.7594864219     -2.648495556
C     -2.1789061927     3.2737077655     -0.6331477843
C     -2.1392079068     2.338679084     1.6583397098
C     -0.9217392418     2.2126204422     2.4368156431
C     -1.9974699287     3.4433789613     0.7745988785
C     1.3189977223     3.0161846695     1.8775797936
C     2.0059606229     3.3995854139     0.610652418
C     -0.0209295481     3.2889658152     2.0236708606
C     -0.6998583202     4.0524382451     0.9941888034
C     1.1962977232     3.0725115725     -1.6968511299
C     -0.2255077581     3.0048909216     -2.1142793908
C     -0.9903116496     3.8176394625     -1.2797301074
C     1.2355734931     3.8631183618     -0.4875319153
C     -0.0983026255     4.317010899     -0.2325458394


