60

 C     -0.0643962933     -4.587630976     0.7358636032
C     -0.9214094341     -3.8595655353     1.6705685769
C     -2.0612335555     -3.4743925827     0.9959021482
C     -0.5865780719     -4.3761604293     -0.601117831
C     -1.8685512683     -3.8006604165     -0.4563717214
C     0.4191668759     -3.7120511213     -1.4026491996
C     1.2035386281     -4.0242590592     0.804699125
C     1.6064653777     -3.6603846657     -0.5532451125
C     -0.1225197325     -2.8313024927     2.3198093457
C     1.2312653275     -2.9734515918     1.8135438947
C     -0.6325290846     -1.5348366399     2.5267510331
C     -2.5428873267     -2.1446956289     1.0846129917
C     -1.9476657197     -1.1894851389     1.9560632718
C     -2.2148306201     -2.6648604267     -1.1719493136
C     -2.8514019744     -1.6986945683     -0.2460407
C     0.0932275532     -2.5658650935     -2.1982860576
C     -1.3092528006     -2.123370876     -2.1734881724
C     1.1250014404     -1.5363436972     -2.4521985591
C     2.4994025249     -2.6472759786     -0.6903386299
C     2.3765083878     -1.7012448868     -1.7854246743
C     2.0974918515     -1.8530107096     1.661071536
C     2.9480988097     -1.8823229076     0.4946060227
C     0.3395274473     -0.4502526755     2.7141686302
C     1.7063586215     -0.5659376083     2.2139390421
C     -0.1907793319     0.8208717372     2.9294358167
C     -2.2865021958     0.1915345461     1.7390845076
C     -1.5805419109     1.126044837     2.5465461763
C     -2.9957303648     -0.350115143     -0.562547704
C     -2.8668868151     0.6608938239     0.4855305972
C     -1.6084936443     -0.8354957761     -2.5946387804
C     -2.6393856987     -0.0096143667     -1.9108522214
C     0.7660122636     -0.1668687748     -2.8504305831
C     -0.6154519675     0.0774425643     -3.1021472592
C     1.5699735599     1.0053742517     -2.4546028842
C     3.1418494009     -0.5710364542     -1.4300360733
C     3.4499640461     -0.6866501737     0.0141432486
C     2.7560732296     0.7341117001     -1.6897708823
C     2.3641981955     0.6665314419     1.7702841542
C     3.2104153826     0.5554321384     0.623353994
C     3.047048397     1.509538884     -0.4732784162
C     0.5653161666     2.0411681407     2.7928422266
C     1.7868715835     1.9876790875     2.044100429
C     -1.6783409175     2.4928654269     2.3340883829
C     -0.3825656474     3.0990876199     2.5995162475
C     -2.7113934652     2.0645516057     0.1106718252
C     -2.1811992153     3.0005922632     1.0781945347
C     -2.4135730471     1.3079511169     -2.2372081138
C     -1.1545715663     1.378255043     -2.9801326165
C     -2.4208068627     2.3556088779     -1.2729292592
C     0.9648950891     2.3216378027     -2.2468216935
C     -0.4413041317     2.4864475937     -2.5174506693
C     -1.3230016926     3.2441046541     -1.6160538307
C     2.444953539     2.6973794689     -0.2515065807
C     1.9990645804     3.0582616611     1.0883441337
C     1.496634438     3.2164977244     -1.242614163
C     -0.1840389796     4.0767992609     1.6214000746
C     -1.3211884527     4.0661095547     0.6822077721
C     -0.7741769689     4.0707388608     -0.638541543
C     1.0158916741     4.0611920458     0.8871603996
C     0.6679740664     4.1031325614     -0.5358304969


