60

 C     -0.1476665473     4.5692478328     1.2604461347
C     1.0703631224     4.4506642754     0.5387079678
C     0.7488495215     4.5086805272     -0.8666851426
C     -1.2255260789     4.3448357206     0.287896584
C     -0.7391341185     4.3866543574     -1.0098466278
C     -2.0161693388     3.210672447     0.7145659306
C     -0.2185685907     3.485450874     2.168420031
C     -1.4085212955     2.7165621776     1.9309662849
C     1.8004396301     3.2990842658     1.0360291317
C     0.9990458103     2.7339106924     2.131512754
C     2.4268940481     2.3835424487     0.1368759326
C     1.3181513137     3.6014239879     -1.7246168544
C     2.2166825279     2.5701057604     -1.2877346183
C     -1.0039291631     3.2828475696     -1.9159822579
C     0.2417083483     2.9341160759     -2.5000336769
C     -2.4786221586     2.2485560531     -0.2310211479
C     -1.8981559708     2.2063849706     -1.5748760389
C     -2.9122072947     1.0272982185     0.3442127888
C     -1.452199553     1.3304792273     2.2766887786
C     -2.4752436555     0.595864335     1.6298775917
C     0.9982959954     1.3473505154     2.400965126
C     -0.2554468763     0.6278730042     2.6641468231
C     2.6747163901     1.0334010942     0.5968526995
C     2.0789349853     0.583818936     1.8355327302
C     2.9585153292     -0.0148371282     -0.3768367346
C     1.88498306     1.3990179135     -2.0402840845
C     0.607645439     1.611975693     -2.7231486699
C     2.2902498228     0.11015735     -1.6604555757
C     -1.6529340198     0.8771680329     -2.1385525005
C     -0.3513671121     0.567861994     -2.6861243862
C     -3.1277913243     -0.1553719043     -0.4467559484
C     -2.45280701     -0.2586312246     -1.6855435777
C     -2.5294281141     -0.8414682219     1.6727311604
C     -3.1653126152     -1.2909417445     0.4514504945
C     -0.2803548444     -0.8344269846     2.6939000187
C     -1.4844169398     -1.5873013851     2.2640238037
C     2.1271486607     -0.79767607     2.1783230169
C     0.9485582735     -1.5158409696     2.6573978962
C     3.2314564204     -1.3221941421     0.0817861241
C     2.9180525183     -1.6775741313     1.4428928339
C     2.8308281596     -2.4394647895     -0.6926338983
C     1.5731304541     -1.0204227214     -2.2253275293
C     0.1865372994     -0.7918495511     -2.6748460322
C     1.9377822014     -2.3198689661     -1.7795960564
C     -2.073317691     -1.5861116449     -2.1014146908
C     -0.7139065143     -1.8539846926     -2.5854744073
C     -2.9399599446     -2.5784583786     -0.0130191388
C     -2.4809735577     -2.7162425839     -1.3745627105
C     -1.3472901072     -2.9643090231     1.8250698203
C     -2.1421750466     -3.4600899806     0.777581308
C     1.0824892053     -2.9040803605     2.2058813279
C     2.3296359232     -3.0089969807     1.4829500166
C     2.3357168218     -3.5224023214     0.1889381528
C     -0.0189396646     -3.600789729     1.7313569873
C     0.9606604972     -3.4117741083     -1.6733513691
C     -0.3254186925     -3.1942222519     -2.146610968
C     -1.4378127286     -3.7382814542     -1.4141104017
C     -1.2485060179     -4.2220370504     -0.1229823137
C     1.1760350735     -4.0990886046     -0.3909860761
C     0.0505958339     -4.3162674516     0.4554328839


