60

 C     5.0552676182     -0.4434385373     0.2227315953
C     4.5751981985     0.1278133249     -0.9853129125
C     4.1352785286     1.4674502382     -0.7544702025
C     4.6248566228     0.486850639     1.2754395549
C     4.1343725968     1.6928694856     0.6937806068
C     3.817145211     -0.1968550806     2.2133763418
C     4.2618221463     -1.6249195558     0.4260503838
C     3.6187070472     -1.5740515223     1.6770989824
C     3.6222591489     -0.7662193681     -1.6319616273
C     3.4129911751     -1.8753681881     -0.7303664345
C     2.5380274723     -0.2471025712     -2.4059556285
C     2.9276876076     1.9482930408     -1.303329576
C     2.2055507108     1.1936477932     -2.296136354
C     2.8479900353     2.1856275795     1.0229624961
C     2.1697981699     2.5460204522     -0.225463935
C     2.5387121039     0.2926733177     2.5508250765
C     2.0190833234     1.54231361     2.0064149029
C     2.2556742913     -1.9168862762     1.8125028464
C     1.6207963985     -0.8454083643     2.543572492
C     2.1041350974     -2.4326224976     -0.577497331
C     1.4849141761     -2.5009184584     0.7530153155
C     1.4483337011     -1.1248666412     -2.5860478683
C     1.2288944214     -2.2170740252     -1.6729202003
C     0.1363803867     -0.675658     -3.021127699
C     0.8757638639     1.5810922264     -2.5069639112
C     -0.1363803867     0.675658     -3.021127699
C     0.7795412067     2.7013275195     -0.2996095174
C     0.1797731294     2.4295283046     -1.5649631356
C     0.5872497286     1.7019600091     1.9385826665
C     -0.0514586851     2.4727749275     0.881233973
C     0.252104646     -0.6821334887     2.5445392995
C     -0.252104646     0.6821334887     2.5445392995
C     0.0514586851     -2.4727749275     0.881233973
C     -0.5872497286     -1.7019600091     1.9385826665
C     -0.1797731294     -2.4295283046     -1.5649631356
C     -0.8757638639     -1.5810922264     -2.5069639112
C     -0.7795412067     -2.7013275195     -0.2996095174
C     -2.2055507108     -1.1936477932     -2.296136354
C     -1.4483337011     1.1248666412     -2.5860478683
C     -1.2288944214     2.2170740252     -1.6729202003
C     -2.5380274723     0.2471025712     -2.4059556285
C     -1.4849141761     2.5009184584     0.7530153155
C     -2.1041350974     2.4326224976     -0.577497331
C     -1.6207963985     0.8454083643     2.543572492
C     -2.2556742913     1.9168862762     1.8125028464
C     -2.0190833234     -1.54231361     2.0064149029
C     -2.5387121039     -0.2926733177     2.5508250765
C     -2.1697981699     -2.5460204522     -0.225463935
C     -2.9276876076     -1.9482930408     -1.303329576
C     -2.8479900353     -2.1856275795     1.0229624961
C     -4.1352785286     -1.4674502382     -0.7544702025
C     -4.1343725968     -1.6928694856     0.6937806068
C     -3.6222591489     0.7662193681     -1.6319616273
C     -3.4129911751     1.8753681881     -0.7303664345
C     -4.5751981985     -0.1278133249     -0.9853129125
C     -3.6187070472     1.5740515223     1.6770989824
C     -3.817145211     0.1968550806     2.2133763418
C     -4.6248566228     -0.486850639     1.2754395549
C     -4.2618221463     1.6249195558     0.4260503838
C     -5.0552676182     0.4434385373     0.2227315953


