60

 C     0.7562018751     0.0011068746     -4.3861046091
C     1.1685707916     1.2253572365     -4.0010358252
C     -0.0585115185     2.0669181831     -3.8027981742
C     -0.7562018751     -0.0011068746     -4.3861046091
C     -1.1944707086     1.1852538559     -3.6999638779
C     -1.1685707916     -1.2253572365     -4.0010358252
C     1.1944707086     -1.1852538559     -3.6999638779
C     0.0585115185     -2.0669181831     -3.8027981742
C     1.8965407685     -1.0635744144     -2.4380128998
C     2.0075076726     1.3994142573     -2.8200730372
C     2.2701219662     0.2894498449     -1.9373997042
C     0.2198812774     2.9393711664     -2.8066211798
C     1.589112581     2.6263131886     -2.2513750554
C     -0.6526172795     3.0810415944     -1.7058942476
C     -1.8965407685     1.0635744144     -2.4380128998
C     -1.681724812     2.102809764     -1.4448225342
C     -2.0075076726     -1.3994142573     -2.8200730372
C     -2.2701219662     -0.2894498449     -1.9373997042
C     -0.2198812774     -2.9393711664     -2.8066211798
C     -1.589112581     -2.6263131886     -2.2513750554
C     1.681724812     -2.102809764     -1.4448225342
C     0.6526172795     -3.0810415944     -1.7058942476
C     2.0470003048     -1.8765349966     -0.0416147244
C     2.3579928033     0.5578856373     -0.481722635
C     2.3579928033     -0.5578856373     0.481722635
C     1.5595638995     2.853791571     -0.895598281
C     0.233402113     3.4338949117     -0.622362168
C     2.0470003048     1.8765349966     0.0416147244
C     -0.233402113     3.4338949117     0.622362168
C     -2.0470003048     1.8765349966     -0.0416147244
C     -1.5595638995     2.853791571     0.895598281
C     -2.3579928033     -0.5578856373     -0.481722635
C     -2.3579928033     0.5578856373     0.481722635
C     -1.5595638995     -2.853791571     -0.895598281
C     -0.233402113     -3.4338949117     -0.622362168
C     -2.0470003048     -1.8765349966     0.0416147244
C     1.5595638995     -2.853791571     0.895598281
C     0.233402113     -3.4338949117     0.622362168
C     1.589112581     -2.6263131886     2.2513750554
C     2.2701219662     -0.2894498449     1.9373997042
C     2.0075076726     -1.3994142573     2.8200730372
C     1.681724812     2.102809764     1.4448225342
C     0.6526172795     3.0810415944     1.7058942476
C     1.8965407685     1.0635744144     2.4380128998
C     -1.589112581     2.6263131886     2.2513750554
C     -0.2198812774     2.9393711664     2.8066211798
C     -2.2701219662     0.2894498449     1.9373997042
C     -2.0075076726     1.3994142573     2.8200730372
C     -1.681724812     -2.102809764     1.4448225342
C     -0.6526172795     -3.0810415944     1.7058942476
C     0.2198812774     -2.9393711664     2.8066211798
C     -1.8965407685     -1.0635744144     2.4380128998
C     1.1685707916     -1.2253572365     4.0010358252
C     -0.0585115185     -2.0669181831     3.8027981742
C     -1.1944707086     -1.1852538559     3.6999638779
C     1.1944707086     1.1852538559     3.6999638779
C     0.0585115185     2.0669181831     3.8027981742
C     -1.1685707916     1.2253572365     4.0010358252
C     0.7562018751     -0.0011068746     4.3861046091
C     -0.7562018751     0.0011068746     4.3861046091


