60

 C     1.1367052831     4.340007966     0.2968685523
C     -0.2228031191     4.4264404469     0.0966016644
C     -0.5401813777     3.9930895437     -1.285945473
C     1.7190252365     3.8231410319     -0.9709867142
C     0.6446934272     3.4657645808     -1.8768049097
C     2.6577747515     2.886299431     -0.6391890008
C     1.6674339417     3.5414842827     1.3869920285
C     2.7221835889     2.7410986362     0.8374325498
C     0.7615964885     2.9146794003     2.2702602024
C     -1.1759033095     3.8102076655     0.9831222217
C     -0.6747875997     3.0941522834     2.0935445891
C     -1.743438888     3.2749258497     -1.2500589658
C     -2.1981770447     3.1934818756     0.1466985841
C     -1.8556027056     2.1362107905     -2.0721194355
C     0.6174110821     2.1496243868     -2.4821638545
C     -0.676362275     1.5982719206     -2.7061288283
C     2.6803255583     1.5792247099     -1.2283223986
C     1.7031533251     1.181818405     -2.1941087815
C     2.8425675187     1.3822930444     1.1066080761
C     3.0196481101     0.6753188831     -0.1736145237
C     0.9774082279     1.5284804384     2.6594751658
C     2.0119836279     0.7345608368     2.0901303391
C     -1.3206905913     1.8605022873     2.4901918785
C     -0.3045676355     0.9087582195     2.9082424945
C     -2.8406917883     2.0329323523     0.5650064539
C     -2.4335098846     1.3886019556     1.7990190037
C     -2.667879897     1.0189447958     -1.6683906965
C     -3.1587050861     0.9676102237     -0.3692634109
C     -0.8669290303     0.176558042     -2.859328881
C     -2.1137707752     -0.1987931412     -2.2536890738
C     1.506284067     -0.2434646286     -2.3536234975
C     0.2090735785     -0.735355134     -2.8508436127
C     2.8025937752     -0.684285637     -0.2757262457
C     2.2633716753     -1.1721129477     -1.5369168844
C     1.8620459296     -0.705213749     2.0242905204
C     2.5505499647     -1.4403652723     0.9594053108
C     -0.4813892111     -0.4785035546     2.8259580447
C     0.695726218     -1.3206561311     2.6224545662
C     -2.6290617329     -0.0303780081     1.6634697856
C     -3.1141283566     -0.3084051838     0.3408338475
C     -1.7689306014     -0.9661743932     2.2940786732
C     -2.3134222639     -1.4792685039     -1.6867923438
C     -2.8400825635     -1.5395107069     -0.3164850021
C     -0.1581759165     -2.0969452471     -2.6918663542
C     -1.4003564188     -2.4892408705     -2.087000107
C     1.9993611752     -2.5774451056     -1.6120583743
C     0.8061166172     -3.0615422364     -2.283760987
C     2.3362335495     -2.8230853927     0.8191707408
C     2.1885570089     -3.4101713096     -0.5005383157
C     0.4925196476     -2.7190081921     2.4181676127
C     1.378156885     -3.4786826218     1.6385786562
C     -1.8714553122     -2.2905968442     1.811871695
C     -2.3891463531     -2.6036799392     0.503736426
C     -0.8273582567     -3.2185838469     2.0648924889
C     -1.1507930286     -3.7218866694     -1.3124119261
C     0.2135110668     -4.1410713634     -1.5785962836
C     1.098034918     -4.4131626208     -0.4771511517
C     0.6024624876     -4.4642164979     0.812555503
C     -1.6506705467     -3.7755977186     -0.0028761989
C     -0.7775370622     -4.2370809183     1.0671044575


