60

 C     4.0072277604     0.2681141959     -0.6570920661
C     3.8293162457     0.9085782612     0.5885631075
C     2.986939379     2.0809525412     0.3124834117
C     3.3768751096     1.0660523761     -1.7079472764
C     2.6524305238     2.1173636743     -1.1143179391
C     2.7560918337     0.1989729513     -2.6333498988
C     3.619735727     -1.0875728186     -0.8671465608
C     2.769255732     -1.1430051232     -2.0517110824
C     3.295234071     -1.8676934779     0.2502229867
C     3.5678995741     0.1110636242     1.7267057948
C     3.4429080744     -1.2899419432     1.5456876357
C     2.5167713681     0.5034388179     2.6730805424
C     2.0145304712     2.4312634107     1.2087297255
C     1.8014254492     1.6624622758     2.4442282364
C     0.7134920396     2.9174865535     0.7696845726
C     1.3000447921     2.4276686058     -1.5643961145
C     0.2858200252     2.8438271083     -0.5762635203
C     1.6113603447     0.6600280668     -3.2762054688
C     0.8681601158     1.7925264723     -2.7480047235
C     0.656973564     -0.3047100292     -3.6689053147
C     1.5824707745     -1.933377365     -2.067110308
C     0.5602398623     -1.5377888464     -2.998397092
C     2.0627625594     -2.6660056385     0.2487333663
C     1.1640115414     -2.6491437112     -0.8421026301
C     2.3573107102     -1.7683876292     2.3844941695
C     1.7636620172     -0.691420679     3.0795301139
C     1.5660617777     -2.6556208808     1.6139086081
C     0.3425756061     -0.6497131933     3.2801737817
C     0.4039482187     1.7673655407     2.7953125648
C     -0.1999534646     2.6761863649     1.8514113779
C     -0.3425756061     0.6497131933     3.2801737817
C     -1.5660617777     2.6556208808     1.6139086081
C     -1.1640115414     2.6491437112     -0.8421026301
C     -2.0627625594     2.6660056385     0.2487333663
C     -0.5602398623     1.5377888464     -2.998397092
C     -0.656973564     0.3047100292     -3.6689053147
C     -1.5824707745     1.933377365     -2.067110308
C     -0.8681601158     -1.7925264723     -2.7480047235
C     -1.6113603447     -0.6600280668     -3.2762054688
C     -0.2858200252     -2.8438271083     -0.5762635203
C     -1.3000447921     -2.4276686058     -1.5643961145
C     0.1999534646     -2.6761863649     1.8514113779
C     -0.4039482187     -1.7673655407     2.7953125648
C     -0.7134920396     -2.9174865535     0.7696845726
C     -1.8014254492     -1.6624622758     2.4442282364
C     -2.0145304712     -2.4312634107     1.2087297255
C     -1.7636620172     0.691420679     3.0795301139
C     -2.3573107102     1.7683876292     2.3844941695
C     -2.5167713681     -0.5034388179     2.6730805424
C     -3.295234071     1.8676934779     0.2502229867
C     -3.4429080744     1.2899419432     1.5456876357
C     -3.5678995741     -0.1110636242     1.7267057948
C     -2.769255732     1.1430051232     -2.0517110824
C     -2.7560918337     -0.1989729513     -2.6333498988
C     -3.619735727     1.0875728186     -0.8671465608
C     -2.6524305238     -2.1173636743     -1.1143179391
C     -2.986939379     -2.0809525412     0.3124834117
C     -3.8293162457     -0.9085782612     0.5885631075
C     -3.3768751096     -1.0660523761     -1.7079472764
C     -4.0072277604     -0.2681141959     -0.6570920661


