60

 C     1.7687435189     -3.7789400913     0.6260732112
C     1.6018039947     -3.7076397523     -0.7314530205
C     0.1847722118     -3.975128287     -1.0631968339
C     0.4280947505     -4.0652756336     1.2109729794
C     -0.5623661751     -4.0282947993     0.1466504495
C     0.2938485168     -3.2563113616     2.3078609273
C     2.3310438421     -2.6477052598     1.3200779807
C     1.5089268599     -2.4406610629     2.4717787549
C     2.8098621674     -1.5062025048     0.6034967305
C     2.0596151011     -2.5899964187     -1.5084784181
C     2.7043935557     -1.4883458679     -0.8653846729
C     -0.159557211     -3.1318448246     -2.1289342151
C     1.0273037402     -2.3260281788     -2.4891478955
C     -1.4045247044     -2.4916076103     -2.0876721861
C     -1.7387015227     -3.2058156439     0.2897320214
C     -2.2155360174     -2.5682671945     -0.9055347605
C     -0.8558628551     -2.4174353014     2.5069980356
C     -1.9295129713     -2.4515771371     1.5584762483
C     1.0906991656     -1.1602045385     2.8330967579
C     -0.3615744258     -1.1436111807     2.9733705229
C     2.7321988569     -0.2234535865     1.2888111862
C     1.7689828319     -0.0066943527     2.3593514446
C     3.1417127297     0.9257599789     0.5626606257
C     2.6532405773     -0.1954517038     -1.5661032986
C     3.0224622614     0.9693510166     -0.8675474982
C     0.8527126146     -1.0629833724     -3.0204314664
C     1.7333523055     -0.0044169074     -2.6452690755
C     -1.5789042433     -1.1619628199     -2.6753919247
C     -0.4782135257     -0.4873346807     -3.1812376125
C     -3.0096896535     -1.3536232622     -0.8695733265
C     -2.603812097     -0.4546650912     -1.9541157882
C     -2.7489572569     -1.300198222     1.5529211146
C     -3.4212716138     -0.8311079116     0.3458544066
C     -1.0810506281     0.0581050343     2.8213596743
C     -2.4020050107     -0.1006987716     2.298676015
C     1.0910472284     1.2755176939     2.5001002921
C     -0.3548092816     1.323364816     2.6408871684
C     2.8283530316     2.2111512911     1.0350054509
C     1.7753988778     2.431792486     1.9674455585
C     2.5781807323     2.3263093275     -1.2575505068
C     2.6510066685     3.1272211843     -0.1000941483
C     1.0159152026     1.2516708701     -2.7834567174
C     -0.3645903532     0.9352838225     -3.0028444065
C     1.4251690306     2.4425372293     -2.1240060043
C     -2.5501406243     0.9551469175     -1.7879277821
C     -1.4080761049     1.6987518109     -2.3698990973
C     -3.5932115787     0.5747074539     0.4392408577
C     -3.0303797427     1.0044886634     1.6726380019
C     -3.1535309152     1.4836648109     -0.5829943214
C     -1.069472618     2.4678045581     2.0450296068
C     -2.3430601103     2.2310477763     1.4643118016
C     -2.5906159488     2.6203551085     0.0645540139
C     1.0806700716     3.6055371305     1.5620860394
C     1.6191237874     4.0161702876     0.2427484712
C     -0.3214592404     3.5800393889     1.4668648893
C     0.3794519564     3.3736895877     -1.7761849541
C     -1.0124583245     2.9371092737     -1.8168460498
C     -1.6444755437     3.4201703664     -0.5822147421
C     0.5271168735     4.1972023533     -0.6110515401
C     -0.6973831644     4.1195330933     0.1754112253


