60

 C     0.2654391153     -4.3968713412     -0.0777115068
C     0.7168890248     -3.9736768165     1.1478656435
C     1.9753400682     -3.2152540452     0.9648572549
C     1.2607063497     -3.8903674419     -1.0807296604
C     2.2416103805     -3.0546081834     -0.4072265306
C     0.554030906     -3.3815279552     -2.1250688872
C     -1.0613807973     -4.0305994244     -0.5279473403
C     -0.9005230759     -3.5094396231     -1.8519888179
C     -1.91184593     -3.3336150265     0.3704394544
C     -0.107891881     -3.2169018372     2.0570737474
C     -1.4262828248     -2.9515389498     1.687511872
C     1.9569212182     -2.1167505542     1.8528696567
C     0.7053151981     -2.1160684087     2.5722877646
C     2.5889824098     -0.9009122793     1.4663724089
C     2.5669258543     -1.7383363039     -0.9134882884
C     2.9788136959     -0.7378683704     0.0633711313
C     0.8147760239     -2.0586013635     -2.6341807229
C     1.8920661019     -1.2579900219     -2.1161832677
C     -1.4878898847     -2.3120134104     -2.2491437823
C     -0.447210836     -1.4569969367     -2.8651377688
C     -2.6740518151     -2.2025530152     -0.1062372653
C     -2.4810249917     -1.6808172528     -1.4154342433
C     -2.0163734374     -1.6614061774     2.0470338202
C     -2.8757473504     -1.2564619029     0.9896158897
C     0.1371547542     -0.8916016832     3.0060670361
C     -1.3043434511     -0.6795639854     2.8117333116
C     2.2103317955     0.238934326     2.2181919763
C     0.9988328085     0.2408317778     2.9669417783
C     2.4372783874     1.5880499882     1.7288638089
C     3.187932151     0.5782438326     -0.3940887277
C     3.0578871872     1.7531025386     0.4863235264
C     1.8480189035     0.1594523853     -2.417198631
C     2.7600393108     0.9944169347     -1.7014425349
C     -0.5908054438     -0.0514189206     -2.9417494625
C     0.6099922549     0.7710945999     -2.9205773005
C     -2.6805875557     -0.2794706066     -1.6133161958
C     -1.8327005154     0.4875678441     -2.4972575933
C     -3.1815392577     0.1151037289     0.7705858731
C     -3.1894965159     0.5923520175     -0.5879256221
C     -1.7843769441     0.6494719574     2.7507386138
C     -2.7814658479     1.0367791686     1.7860291177
C     0.4796820029     1.6072713872     2.9374359395
C     1.3649791791     2.4463034817     2.1507391661
C     -0.8891570104     1.8049007829     2.9213875051
C     0.8542766331     3.4759843089     1.2727240714
C     2.7129222627     2.876665095     -0.2946986514
C     2.5819289755     2.4151688568     -1.6587516955
C     1.575809384     3.7021762407     0.0374339431
C     0.4171491583     2.1800123873     -2.746121043
C     1.430808905     2.9942933401     -2.1829630637
C     0.8439553835     3.8913581385     -1.1780499359
C     -1.9345965336     1.8617144088     -2.1007373816
C     -2.7771146742     1.9335670437     -0.9038941748
C     -0.8529392487     2.7008828387     -2.2484356568
C     -0.5545775704     3.723646171     -1.2122165583
C     -2.5397028474     2.4093022894     1.4484703138
C     -1.4003837847     2.8945940666     2.1442530238
C     -0.575645375     3.6427248808     1.245941328
C     -2.46949075     2.8644666306     0.093131474
C     -1.297649533     3.7227982893     -0.0263883395


