60

 C     -0.6905392652     -4.7704004816     -0.3820415419
C     0.5664673618     -4.5385473227     -1.0184961892
C     1.5297394685     -4.4067092101     0.0254968472
C     -0.5420126378     -4.3980417283     1.0501854176
C     0.7922653908     -4.2443027739     1.3396789777
C     -1.4761915152     -3.3378699158     1.3770440152
C     -1.6375315795     -3.8969940785     -0.9165994236
C     -2.2677273065     -3.1824720251     0.1710846787
C     0.3972803966     -3.4124021975     -1.9277884096
C     -1.0158675725     -3.0635121395     -1.9345193681
C     1.3429894332     -2.3351512253     -1.9626580777
C     2.4815046538     -3.4264203405     -0.0317707872
C     2.4737274378     -2.418217262     -1.0617075841
C     1.2618386701     -3.0345963289     1.9667612365
C     2.4430758945     -2.6762875275     1.2485799379
C     -1.0613012618     -2.14250999     2.0575694812
C     0.3641325724     -1.9634610655     2.3421828205
C     -1.9041625395     -0.9375583334     1.9106600899
C     -2.8527871542     -1.9781263484     -0.1091580943
C     -2.9069383487     -0.9591136207     0.9098675281
C     -1.4645690467     -1.73092961     -2.1293623162
C     -2.603040801     -1.3037816154     -1.3521139147
C     0.886004897     -0.9859293045     -2.3426748359
C     -0.5238579648     -0.678254915     -2.4879740614
C     1.7731359889     0.1306506481     -2.0949768057
C     2.8988410143     -1.2041467782     -0.4230461625
C     2.7957973609     -1.3647290057     1.0218686775
C     2.6986092884     0.0511560904     -0.9880189792
C     0.8981506364     -0.5953653641     2.3779147525
C     2.1580772032     -0.3158458452     1.7366396641
C     -1.4282550949     0.3805433426     2.3513604465
C     0.0164823864     0.545812037     2.6056141852
C     -2.167406681     1.535264526     1.9916173971
C     -3.2888943867     0.2427991934     0.2459301941
C     -2.9273050495     0.0772249921     -1.1488072449
C     -3.0989134552     1.4548637432     0.8694671075
C     -0.985148606     0.7277124055     -2.4934137799
C     -2.2443333113     1.1152142266     -1.8209032019
C     1.363632238     1.4342880572     -2.4584806505
C     -0.0386999126     1.746317618     -2.6499821544
C     2.0049846574     2.5573605675     -1.9026268364
C     2.8971820561     1.2026489347     -0.1115172434
C     2.5039081433     1.0075317787     1.2958084379
C     2.7652593333     2.4853230176     -0.6863319737
C     0.5775906678     1.8409455592     2.5702725461
C     1.8772394167     2.0726588528     1.960068922
C     -1.5761421253     2.8718047723     1.9468047666
C     -0.2274777292     3.040917282     2.2955714859
C     -2.8792586156     2.5811071434     0.0533760107
C     -2.3803067802     2.435423196     -1.2662157302
C     -2.040844112     3.5312920153     0.7666368042
C     -0.244084844     3.1363329538     -2.1949867865
C     1.0514313533     3.6575774549     -1.8006754529
C     -1.3508921717     3.4596599959     -1.4351452679
C     -1.167411056     4.1735646253     -0.142888673
C     2.3511877447     3.6175486131     0.1085407401
C     1.8836368092     3.3855647918     1.3890088253
C     0.5531535646     3.9805730462     1.5751516442
C     1.2502591907     4.3139215408     -0.5994187792
C     0.1343152945     4.5080733318     0.3135363882


