60

 C     -0.2745782457     -4.3062845051     0.2506809805
C     0.2202677948     -3.8650186426     1.477209923
C     1.5958035169     -3.4424140352     1.2656115487
C     0.7254852044     -3.9413660091     -0.7944876412
C     1.8656599728     -3.4038699626     -0.1587763661
C     0.0477503395     -3.2310282932     -1.8208393769
C     -1.5202566002     -3.8627643966     -0.1828709852
C     -1.3587194868     -3.2999805829     -1.5513117072
C     -2.2801198217     -2.9506501104     0.5786001915
C     -0.4528676569     -2.8208330366     2.2099546386
C     -1.7217601979     -2.3350544058     1.7757111981
C     1.8314293814     -2.3092163715     2.0423525245
C     0.5520595152     -1.8630643493     2.6305164764
C     2.7281916258     -1.357831379     1.5562468384
C     2.5169033236     -2.2612148527     -0.732025277
C     3.1698029957     -1.3834693967     0.1863680549
C     0.6007398349     -2.0141052854     -2.3581828528
C     1.9463812159     -1.6506074613     -1.93839623
C     -0.3435427772     -0.9584964479     -2.7726503664
C     -2.1738380368     -2.181851282     -1.6671349782
C     -2.9097842691     -2.08107322     -0.4031390349
C     -1.7231364511     -0.9715098995     -2.3136268971
C     -3.4159289556     -0.8909727928     -0.0358088048
C     -2.0562031785     -0.9381267279     2.0707920505
C     -3.1603987797     -0.3683811805     1.3191238888
C     0.2944797832     -0.4925382309     2.798170217
C     -1.0821470673     -0.0111688465     2.6056249755
C     2.6332118695     0.0019422099     2.0030377517
C     1.4333414001     0.4480295167     2.6592873642
C     3.52135966     -0.0199051733     -0.144588513
C     3.3076717331     0.8228537178     1.0331570838
C     2.4189321466     -0.3427415916     -2.2906087768
C     3.2413067806     0.4796939459     -1.3975096268
C     0.1988552557     0.3069374089     -3.11830685
C     1.5906454055     0.5286367512     -3.0053605465
C     -0.4545079634     1.5487324313     -2.7907915161
C     -2.4157070831     0.2791580231     -1.9997163376
C     -3.4054816337     0.2355562773     -0.9562056407
C     -1.7408528575     1.5790317492     -2.2233981174
C     -3.4119411985     0.9875525798     1.2727274639
C     -3.6401769979     1.364614904     -0.1468213243
C     -1.316391559     1.4523696476     2.4859468533
C     -2.5162995337     1.943361441     1.8357816111
C     1.1673443377     1.8339954229     2.5690430762
C     -0.2029712043     2.3249677264     2.4429525768
C     2.9521230242     2.1579376259     0.8850568451
C     1.9934332244     2.6792977382     1.7842861889
C     2.8156676572     1.8857500479     -1.554173813
C     1.8217241686     1.901679937     -2.5760592852
C     0.5813984523     2.523214757     -2.3997380355
C     2.6631019922     2.7147601836     -0.4439108832
C     -0.1714940414     3.4873896212     1.5459162122
C     1.1432908498     3.6081941131     1.0727939209
C     0.3755773897     3.4063865249     -1.2754587986
C     1.4629016912     3.5339597479     -0.319594244
C     -2.0325258576     2.7186106786     -1.3771088537
C     -3.0032223597     2.5730053396     -0.3560111579
C     -2.4458525497     3.0470247899     0.919399364
C     -0.9534051502     3.5172176674     -0.8054415689
C     -1.232729828     3.6636755437     0.6337046889


