60

 C     -0.0713248212     4.4703937347     0.2997113489
C     -1.3416383809     4.0916856716     -0.0761326748
C     -1.3062165358     3.5979945399     -1.4633244026
C     0.8129769735     4.2058711245     -0.864363191
C     0.0557735141     3.5111529854     -1.8807381507
C     1.9519573859     3.6195943291     -0.3760533261
C     0.5478966414     3.8821839353     1.479446019
C     1.8616325653     3.4743263478     1.0977428622
C     -0.1997628691     2.9795563141     2.2571569866
C     -2.1242869506     3.1594044153     0.6984584462
C     -1.5792802932     2.6726187572     1.8899635838
C     -2.1777702841     2.5025809086     -1.5545244012
C     -2.738992724     2.2081759474     -0.2360131115
C     -1.8082846032     1.4348951791     -2.3829126789
C     0.5487684128     2.251799254     -2.4292151643
C     -0.4369784053     1.3118740908     -2.8207508069
C     2.4997010551     2.4115770096     -0.9222376874
C     1.8457441572     1.6964768308     -1.9640714807
C     2.3921013544     2.2256309225     1.4378559502
C     3.0047220698     1.682734794     0.2205188888
C     0.3891064966     1.7282478503     2.7066732394
C     1.6810399966     1.300305956     2.2922614788
C     -1.8516517606     1.309744447     2.263498082
C     -0.6645280333     0.7472310405     2.8399960135
C     -3.0435699258     0.8865753585     0.1261023855
C     -2.7139940818     0.4774600188     1.5012883167
C     -2.3055996535     0.1330544308     -2.1211718578
C     -2.9932739682     -0.1598705269     -0.9219069828
C     -0.1652394003     -0.1062111937     -2.9573136735
C     -1.3394494302     -0.8325088608     -2.6489537419
C     2.1209854685     0.254770896     -2.0747542107
C     1.1395020561     -0.6521680305     -2.6856388926
C     3.2339978776     0.3541301205     0.1239198932
C     2.9891458051     -0.3411495894     -1.116809071
C     1.956900842     -0.1427628611     2.1807406048
C     2.9120783324     -0.5562852423     1.2153002821
C     -0.4233101069     -0.6529064881     2.8412592395
C     0.9514518994     -1.139119366     2.5887284642
C     -2.6470849677     -0.8983003934     1.8031166441
C     -1.5387639651     -1.4684964231     2.5266875114
C     -3.0215690646     -1.537485823     -0.530747991
C     -3.0367358946     -1.8665485237     0.8242307744
C     -1.3064008038     -2.1899202934     -2.2190482674
C     -2.2333022764     -2.5899477946     -1.224582887
C     1.2033722756     -2.040258657     -2.4535540016
C     -0.0235977121     -2.8564603016     -2.2916046004
C     2.9616533412     -1.7408258816     -0.8011946544
C     2.9226583675     -1.8703719014     0.663002723
C     2.2048975905     -2.616003402     -1.5787155865
C     1.1216193358     -2.4852351182     2.1926566954
C     2.1571432831     -2.877650343     1.2562454896
C     -1.3486416535     -2.8367295914     2.0431033221
C     -2.2824216146     -3.0913869571     1.0218205257
C     -1.8612100371     -3.5991955848     -0.2514812021
C     -0.0407991296     -3.3664138551     1.9314215818
C     0.2537332519     -3.9330841981     -1.4418140414
C     1.6369067202     -3.7787922487     -0.9626413913
C     1.6258904228     -3.9140383871     0.4173919726
C     -0.6057842627     -4.2369598764     -0.3282357022
C     0.2481059178     -4.2049589966     0.8402067067


