60

 C     -4.0128075199     0.199404803     -2.4853251969
C     -4.6562467652     -0.3238659615     -1.3875886661
C     -4.5178597248     0.6037410293     -0.2750690687
C     -3.353354552     1.4466714805     -2.0547237497
C     -3.6486795756     1.6899367841     -0.6495473699
C     -2.0192159836     1.4182652788     -2.4461393688
C     -2.9268496479     -0.6989396064     -2.8350892307
C     -1.7796467661     0.0751335686     -3.0813972632
C     -3.9398727946     -1.5365999355     -0.961575255
C     -2.8201788465     -1.7503158833     -1.8496440781
C     -4.2315405918     -0.1480133604     0.890361849
C     -3.6841996006     -1.4622762371     0.4162901722
C     -3.5429527443     0.4860634687     1.8918418358
C     -2.5933553895     2.0977133727     0.2489691999
C     -2.7216408423     1.6624884     1.5910571702
C     -0.958601592     1.9554142101     -1.6323901409
C     -1.2023368155     2.3120483536     -0.2531667839
C     0.3762187511     1.6681338984     -2.074888034
C     -0.5460917125     -0.4791880487     -2.875965886
C     0.5460917125     0.4791880487     -2.875965886
C     -1.5263365808     -2.1013786     -1.3259510953
C     -0.3762187511     -1.6681338984     -2.074888034
C     -2.4427196724     -1.9441864195     0.9800431012
C     -1.3206958856     -2.2961840811     0.1059479654
C     -2.8061018864     -0.315999119     2.8088681651
C     -2.1609370935     -1.4800638163     2.308817876
C     -1.586562348     1.6236623206     2.4763939892
C     -1.7387504898     0.4836191064     3.3257268576
C     -0.0530060015     2.3520847484     0.6391894631
C     -0.2685312456     2.0376228418     2.0620158847
C     1.5263365808     2.1013786     -1.3259510953
C     1.3206958856     2.2961840811     0.1059479654
C     2.8201788465     1.7503158833     -1.8496440781
C     1.7796467661     -0.0751335686     -3.0813972632
C     2.9268496479     0.6989396064     -2.8350892307
C     0.958601592     -1.9554142101     -1.6323901409
C     2.0192159836     -1.4182652788     -2.4461393688
C     0.0530060015     -2.3520847484     0.6391894631
C     1.2023368155     -2.3120483536     -0.2531667839
C     -0.8034330151     -1.5367378863     2.8393298963
C     -0.6136110988     -0.3204284496     3.6036076615
C     0.2685312456     -2.0376228418     2.0620158847
C     0.8034330151     1.5367378863     2.8393298963
C     0.6136110988     0.3204284496     3.6036076615
C     2.4427196724     1.9441864195     0.9800431012
C     2.1609370935     1.4800638163     2.308817876
C     3.9398727946     1.5365999355     -0.961575255
C     3.6841996006     1.4622762371     0.4162901722
C     4.0128075199     -0.199404803     -2.4853251969
C     3.353354552     -1.4466714805     -2.0547237497
C     4.6562467652     0.3238659615     -1.3875886661
C     2.5933553895     -2.0977133727     0.2489691999
C     4.2315405918     0.1480133604     0.890361849
C     3.6486795756     -1.6899367841     -0.6495473699
C     4.5178597248     -0.6037410293     -0.2750690687
C     1.586562348     -1.6236623206     2.4763939892
C     1.7387504898     -0.4836191064     3.3257268576
C     2.8061018864     0.315999119     2.8088681651
C     2.7216408423     -1.6624884     1.5910571702
C     3.5429527443     -0.4860634687     1.8918418358


