60

 C     -0.4468472684     -4.7351766274     -1.0437639378
C     0.8613695259     -4.2542605058     -1.1847801248
C     1.4511781478     -4.1545737823     0.1247978172
C     -0.7836061789     -4.698863393     0.4128826246
C     0.3644514239     -4.3488209928     1.1278839917
C     -1.9345075471     -3.8981012732     0.5751418142
C     -1.3235998989     -3.8061557382     -1.6908746386
C     -2.3106934014     -3.3998489916     -0.7755402641
C     0.8444916355     -3.0388555707     -2.0177648345
C     -0.5392285764     -2.757328537     -2.3333657883
C     1.7276248521     -1.9749763185     -1.7619724655
C     2.1841996041     -3.0439922461     0.4665573436
C     2.5503723298     -2.0617490113     -0.5391374526
C     0.3847656821     -3.1999647844     1.9795860039
C     1.614186964     -2.4953279639     1.7168802887
C     -1.9490103856     -2.774367668     1.4360563631
C     -0.7733604291     -2.3685452717     2.1820324753
C     -2.6957822084     -2.055341774     -0.6774644126
C     -2.6621201528     -1.7142076873     0.735798714
C     -0.9894466493     -1.414425248     -2.3463055545
C     -2.1854051579     -1.0657583485     -1.5754734467
C     1.3741621996     -0.6403533142     -2.2247485159
C     -0.0115815938     -0.3571518984     -2.5267572985
C     2.2605373057     0.4685167338     -1.8905958189
C     3.1120016897     -0.9081335548     -0.0361173693
C     3.1749025401     0.3020802357     -0.7962419106
C     1.8317623621     -1.1698590326     2.0972398507
C     2.9071947197     -0.5206984914     1.3904884445
C     -0.5896928938     -0.9492404183     2.4949562455
C     0.7385671021     -0.357270947     2.6058323677
C     -2.600962339     -0.4049004893     1.1351520325
C     -1.6761032283     -0.0340849332     2.2129662995
C     -2.4364287455     0.3003868316     -1.2359465759
C     -2.8882225805     0.5988535198     0.1150943337
C     -0.4890886839     1.0185154502     -2.5828776602
C     -1.8000896517     1.3505563302     -2.0122151507
C     1.8206350336     1.7872018308     -2.1478979287
C     0.4937736765     2.0469731729     -2.6437598176
C     2.1786006439     2.9053866006     -1.2527505863
C     3.3817898244     1.3658865207     0.1373835536
C     3.0769648128     0.837407382     1.4704451023
C     2.7606442904     2.5956657435     0.006272306
C     0.9137408212     1.103007038     2.6347493357
C     2.0953245382     1.6943030388     2.0636226536
C     1.9903372909     2.8795724205     1.2387389692
C     -1.5285840842     1.342743747     2.4732599038
C     -0.226252795     1.9396638672     2.6545762012
C     -2.9611469687     1.9336738753     0.5512450746
C     -2.363421399     2.2976510984     1.8347022555
C     -2.081109888     2.7007913763     -1.6238587443
C     -2.6908026225     2.9648666643     -0.357780464
C     0.1588652606     3.3909383855     -2.2560933486
C     1.1653152933     3.8553683481     -1.2810823534
C     -1.0776527417     3.7182100767     -1.7804866277
C     0.8139044315     3.6828112266     1.1973222235
C     -0.2642002044     3.2666935615     2.0593381607
C     -1.6362981754     3.5122552245     1.6766936931
C     -1.8975608478     3.9949352744     0.3624911447
C     0.4803408399     4.3040325227     -0.0983883561
C     -0.899197444     4.4433868156     -0.476146041


