60

 C     0.4374106607     4.3849912486     0.1319883517
C     1.6888841453     3.8522127844     0.3528715257
C     1.6524410232     3.1146622409     1.6239929383
C     -0.3979677089     4.0257466088     1.3112642267
C     0.3259899281     3.071566334     2.1289640066
C     -1.6333205208     3.67840585     0.8421670149
C     -0.2958896708     4.0318066435     -1.0671258288
C     -1.6232032376     3.7196433939     -0.6575980639
C     0.307403719     3.1467279818     -1.9965038054
C     2.3352170778     2.9873282685     -0.5971812123
C     1.6651600343     2.672267136     -1.7783950946
C     2.4248243169     1.9621727562     1.5061888622
C     2.9453101792     1.8793407144     0.1536062094
C     2.0226524379     0.775054782     2.1830866905
C     -0.2520811306     1.7792068052     2.4747732429
C     0.640919191     0.6299492881     2.6289124396
C     -2.2936307793     2.49914233     1.2655487478
C     -1.6497329959     1.5281690786     2.1136976752
C     -2.3177734167     2.5992401466     -1.1046644659
C     -2.9600967304     2.0138070656     0.0761511167
C     -0.4338550036     2.0069288966     -2.5001450493
C     -1.7404989042     1.6726719548     -2.0678446646
C     1.7756295018     1.3134852077     -2.3092831586
C     0.4928602058     0.9300947165     -2.7898263208
C     3.2242144156     0.6286038466     -0.4241466619
C     2.6612129704     0.3417572983     -1.7584167294
C     2.7772608605     -0.3542188895     1.798194767
C     3.3662900481     -0.4547144611     0.4884486243
C     2.3135416944     -1.6418710076     2.1422445456
C     0.0906141818     -0.7303739341     2.7159303429
C     0.9925573781     -1.8464718209     2.5677043396
C     -2.1764548076     0.1629056176     2.0906371148
C     -1.3257122352     -0.9654830873     2.4705979416
C     -3.4136720857     0.7506799946     0.0322135745
C     -3.2744570741     -0.1024587028     1.1978593471
C     -2.1639371115     0.2590116506     -2.0634474071
C     -3.2316303459     -0.0859935191     -1.1643970418
C     0.0964432286     -0.4352530706     -2.8522846258
C     -1.2654631379     -0.8175299375     -2.4906627075
C     2.4119579069     -0.998016573     -2.105452255
C     1.1653994478     -1.3698107249     -2.7267338692
C     3.2679498758     -1.8518986132     0.0640416741
C     2.7054687033     -2.609449516     1.1372960489
C     2.82364714     -2.1247765049     -1.2418280166
C     0.587881434     -3.1059529271     1.9273322818
C     1.6298927415     -3.5128276571     0.9578691118
C     -1.718504293     -2.296454101     2.0467610991
C     -0.7287001667     -3.3028552757     1.6509981638
C     -3.5535414829     -1.3999912921     0.7298494272
C     -3.4438291258     -1.3950927676     -0.7427063464
C     -2.8298363603     -2.4829944633     1.186716325
C     -1.5010423769     -2.1993888281     -2.0313468301
C     -1.1231339114     -3.8275960724     0.3241559161
C     -2.6018847829     -2.4695351379     -1.1438086966
C     -2.3707643669     -3.2640998739     0.0266974361
C     0.8895919708     -2.7096663118     -2.3341536368
C     1.9137817087     -3.1936903259     -1.4435553511
C     1.2449353389     -3.8552852703     -0.3588317631
C     -0.3887687061     -3.1078271728     -1.9088333023
C     -0.1679607967     -3.9060030008     -0.6895879247


