60

 C     -0.9853506006     -4.5665444291     -0.6565362529
C     -2.1583524333     -4.0398524823     -0.2210934857
C     -2.6003642658     -2.9728341983     -1.1189262849
C     -0.5734527581     -3.7979341712     -1.8459367409
C     -1.5680080123     -2.7655948503     -2.1155023604
C     0.7178806523     -3.3550261599     -1.6014644544
C     0.0145364993     -4.3391588825     0.4037984008
C     1.1019896365     -3.7140512231     -0.190887072
C     -1.9918658753     -3.4818281491     1.1458132012
C     -0.6209678474     -3.6555570296     1.5300404083
C     -2.9138623827     -1.892888469     -0.2953046013
C     -2.5313991109     -2.189223428     1.1125264891
C     -2.7551989272     -0.5719734708     -0.7546032886
C     -1.1579514728     -1.4305201454     -2.4310755465
C     -1.9707822923     -0.3249813691     -1.9348116959
C     1.1952327738     -2.1214371587     -2.1354035685
C     0.2573515209     -1.1316258444     -2.6323379308
C     2.4361373435     -1.7000059505     -1.583405744
C     1.9405846419     -2.8309064383     0.5621069381
C     2.7978243287     -2.0167419821     -0.201423736
C     0.0576987296     -2.5805017904     2.1851548859
C     1.4652080534     -2.3473111225     1.8572209063
C     -1.9901444232     -1.1398868857     1.9113709965
C     -0.7416444497     -1.4159769452     2.6051997283
C     -2.8855044153     0.4613715999     0.2441924442
C     -2.3700741423     0.2111751622     1.5801433953
C     -2.9315912212     1.7656247304     -0.258938288
C     -1.6175740042     1.0479987842     -2.2347894536
C     -2.3822833414     2.0567829729     -1.5732340897
C     0.6930484198     0.2656475782     -2.7507656285
C     -0.2744137137     1.3534838333     -2.689554699
C     2.8921161311     -0.4048798783     -1.8547812265
C     2.0542381383     0.5721042281     -2.4449647154
C     3.4338331944     -0.8214363301     0.3427119193
C     3.5698816978     0.1484726719     -0.7011765021
C     2.0959723045     -1.1753510255     2.3702523949
C     3.0601214807     -0.3792384352     1.5966051321
C     -0.0541576898     -0.2965421445     3.136146239
C     1.3500921625     -0.268178404     3.1252217351
C     -1.6862017253     1.3374852058     2.2085388612
C     -0.5034660195     1.0664622233     2.9086636584
C     -2.687092343     2.916870384     0.5784434203
C     -1.8094079092     2.6653716141     1.6746978033
C     -1.934752286     3.4271624636     -1.5130639719
C     -2.1942683573     3.9851444987     -0.2077284895
C     0.2111927208     2.6893413253     -2.4094695459
C     -0.6083477478     3.7041095169     -1.8966374809
C     2.3898616706     1.8080846487     -1.7553894816
C     3.1575173568     1.4820980355     -0.5535353885
C     1.499889847     2.8273044099     -1.7249205106
C     2.7759060887     1.0493490106     1.8084549059
C     1.7831976924     1.1013547609     2.806909648
C     0.6699032154     1.9312225951     2.7141212401
C     2.7117893251     1.9967540327     0.7230998025
C     -0.6470958375     3.5445222863     1.508632763
C     -0.9015024596     4.3319762143     0.334784232
C     0.0677355089     4.2795019231     -0.6926706424
C     1.3008165753     3.6326730499     -0.5212009059
C     0.6484081072     3.0192840442     1.7798685378
C     1.6971121477     3.0492548892     0.7468139959


