60

 C     -1.5240717973     -4.0726875351     -0.3905978592
C     -1.0439397098     -3.8387894735     0.9275223239
C     -1.8430857251     -2.8387610328     1.5935273061
C     -2.4956950581     -3.0724094833     -0.6328722381
C     -2.7719147919     -2.3432542086     0.591924432
C     -2.1188450875     -2.2959704044     -1.7784669194
C     -0.406117637     -3.7805540588     -1.2583294899
C     -0.7748830162     -2.7553112734     -2.1699527999
C     0.3908406582     -3.7083686863     0.9193234648
C     0.7959708319     -3.6107997874     -0.4944593265
C     0.9836739966     -2.8667443736     1.8436498294
C     -1.2129947688     -1.9252639974     2.4869296498
C     0.1952260838     -2.0102993758     2.696512606
C     -1.802230169     -0.6288248364     2.6045632136
C     -3.1391123285     -0.9780123752     0.5435056602
C     -2.8178691249     -0.1985844121     1.7042802648
C     -2.4818739245     -0.9393659683     -1.8806922212
C     -3.1617072153     -0.2765474941     -0.7534494563
C     -1.6335125097     -0.1351285216     -2.7101200096
C     0.2030898104     -1.8356885713     -2.6255846481
C     -0.3055671238     -0.5729618156     -3.0491801208
C     1.8092289602     -2.6969309401     -0.8979621298
C     1.5622236981     -1.8955635552     -2.0945569024
C     2.2090344155     -2.1691813191     1.4975198385
C     2.6863892755     -2.1435556591     0.1574797935
C     0.974648017     -0.8136302805     2.9123145739
C     2.2633393558     -0.9835952264     2.3160383348
C     -1.0330283122     0.5500691467     2.971885767
C     0.3801941215     0.4991693878     3.0068791257
C     -2.8323385839     1.2539075438     1.682724764
C     -1.7390186489     1.7254999685     2.5053483988
C     -3.2020152186     1.1307006078     -0.7408528415
C     -3.1654969273     1.9102970037     0.4957645969
C     -1.6225698078     1.2923468513     -2.6272476312
C     -2.4922041565     1.9396051634     -1.7397363357
C     0.518633904     0.6100802606     -3.1274804472
C     -0.2650620619     1.772998153     -2.7909202307
C     2.3929215668     -0.7492388389     -2.3165746214
C     1.8419825456     0.5337321208     -2.77901249
C     3.5672335229     -1.0523841498     -0.1736137064
C     3.4438016657     -0.4396287155     -1.4509134175
C     3.0046734545     0.1420975474     1.8947326567
C     3.8020093532     0.017212945     0.7492090837
C     1.1379060392     1.6699292644     2.4993083186
C     2.4255522124     1.4747759299     1.9483218816
C     -1.0199883489     2.8630905871     2.114866748
C     0.4157677104     2.8024642574     2.0287749892
C     -2.535668303     3.1723529282     0.2062308538
C     -2.0865935762     3.1690467672     -1.1758522771
C     -1.5003768995     3.6530460834     1.004934414
C     0.2590472292     2.7970006757     -1.9545433895
C     0.7872818328     3.4405206541     0.7651095186
C     -0.700209569     3.5545672311     -1.1853794772
C     -0.3690760372     3.9619149473     0.1496824541
C     2.4567699363     1.6288162533     -2.0324279229
C     3.5225477536     1.0359929743     -1.302082237
C     3.7275200256     1.300856644     0.0340591217
C     2.8249958319     2.1629675221     0.7241250153
C     1.6359883694     2.6289266992     -1.4332909772
C     1.8785740604     2.9340499511     -0.0108969755


