60

 C     -0.2025453375     4.8000857856     0.454331398
C     0.9285422727     4.6623759559     -0.3128072445
C     0.6114825163     4.0946686025     -1.6054778813
C     -1.3104234702     4.2470672898     -0.3006656143
C     -0.7986752283     3.7404656078     -1.5800339125
C     -1.916484231     3.298086985     0.524865432
C     -0.012592507     3.9704348099     1.6617847077
C     -1.1045912471     3.1390825249     1.786110878
C     1.8830139973     3.767438141     0.3670387251
C     1.3064743061     3.3321206933     1.6061909989
C     1.5622541303     3.0676099747     -1.8315740826
C     2.3468650786     2.8326297945     -0.5924220588
C     1.1814849919     1.9378501926     -2.5317467882
C     -1.2156150252     2.4541029072     -2.0606741927
C     -0.2283876991     1.6662937328     -2.7304228825
C     -2.5456948093     2.135741748     0.0090872272
C     -2.2477485957     1.6731862183     -1.3319740718
C     -2.9140113233     1.1857250209     1.0121068577
C     -0.9760293518     1.8303099214     2.3820579007
C     -2.0608267966     0.9742668468     2.2079445702
C     1.4574696277     1.9725854838     1.9759219241
C     0.3375963022     1.2383913825     2.5747477318
C     2.6743035285     1.5161302841     -0.1961535312
C     2.4055342132     1.1833096467     1.192703839
C     1.8289953378     0.675008772     -2.3171962566
C     2.6172560162     0.4167936317     -1.1719422069
C     -0.363538596     0.2568089464     -2.9106252951
C     0.932072697     -0.3578081938     -2.7625441918
C     -2.4802524024     0.2672251597     -1.6461007929
C     -1.5287755326     -0.4443313926     -2.5088914316
C     -3.3903318524     -0.0457157884     0.6301194765
C     -3.1782975435     -0.5402568508     -0.6853475764
C     -1.9783123681     -0.4414175267     2.4331113673
C     -2.9229017388     -1.065032457     1.5781098494
C     0.4339367593     -0.1904936317     2.780322311
C     -0.7279857371     -1.0859498217     2.6880412705
C     2.5841525361     -0.1393462971     1.561460915
C     1.7129575347     -0.7752214141     2.5387620247
C     2.7961402646     -0.9694934405     -0.7509795192
C     3.0528242782     -1.1534190732     0.6418288825
C     1.1082981461     -1.716091473     -2.4350179742
C     2.1754744745     -2.0818214474     -1.4910868776
C     -1.3808455045     -1.8517190691     -2.4359897293
C     -0.0919880042     -2.4970681645     -2.5321658803
C     -2.9022584081     -1.9531476724     -0.5307679936
C     -2.6424145477     -2.2400278733     0.898499141
C     -2.160462543     -2.6377515461     -1.4746596486
C     -0.5794263492     -2.4913563587     2.2683646961
C     -1.5464879389     -3.074919121     1.3130901949
C     1.8512261779     -2.154643691     2.3975133588
C     2.7914606191     -2.3991776742     1.2689698372
C     0.7592896727     -3.0413413077     2.2736552105
C     2.0582246147     -3.3668316484     -0.8419024035
C     2.3644760161     -3.4856581067     0.5624331774
C     1.1553607255     -4.0146807075     1.2690817859
C     -0.1661668578     -3.7405149435     -1.8224222169
C     -1.414096175     -3.7665807908     -1.0628619801
C     -1.0911732411     -4.0049293546     0.3102553547
C     0.8777616555     -4.1623494358     -1.0290936551
C     0.2844126717     -4.4466996864     0.3150370463


