60

 C     2.5602386871     0.32455124     -2.7523393588
C     2.9967098922     -0.5661181805     -1.7676458293
C     3.3690579832     0.2662764128     -0.6195386223
C     2.4369035071     1.6700169693     -2.155332874
C     2.8735644997     1.639341741     -0.8389090918
C     1.1960752454     2.2320187801     -2.5574185894
C     1.4226512295     0.0984574911     -3.5638816076
C     0.5949528167     1.307981322     -3.5155381779
C     0.834954187     -1.1689411226     -3.5151269853
C     2.322036569     -1.8285684383     -1.5714490219
C     1.3351205108     -2.151547681     -2.5571348981
C     2.1564397377     -2.3342643044     -0.2014054279
C     3.3689145513     -0.2666177846     0.619012929
C     2.8740202184     -1.639894252     0.8384762709
C     2.9963600215     0.5659929778     1.7670082136
C     2.1559163397     2.333774306     0.2008129104
C     2.3217346688     1.8283244074     1.5708861424
C     0.4227131882     2.925102349     -1.5717093772
C     0.943354018     3.0348998718     -0.2018184238
C     -1.0081629751     2.8779800548     -1.7674815591
C     -0.7966966695     1.1829646966     -3.5634819792
C     -1.5611512781     2.0548997823     -2.752003798
C     -0.6263079572     -1.2811767599     -3.5634390814
C     -1.4303738839     -0.1385639123     -3.5152544268
C     0.2280075963     -2.9453259712     -2.154980117
C     -0.9990151586     -2.3791849103     -2.7518721796
C     0.943312328     -3.034663741     0.2014054277
C     -0.0168200174     -3.3089216403     -0.8384762711
C     0.4225684457     -2.9252268708     1.5714490217
C     2.4367233255     -1.6701233506     2.1549801168
C     2.559942162     -0.3244199434     2.7518721795
C     1.1957347039     -2.2320221143     2.5571348979
C     1.4226856095     -0.0981897728     3.5634390813
C     0.5948556243     -1.3075620927     3.5151269852
C     1.3349640388     2.1514549178     2.5564592326
C     0.8351868201     1.1694581698     3.5152544268
C     -0.0168204712     3.3089274883     0.8380600214
C     0.2277582981     2.9449608424     2.1542961708
C     -1.915433293     2.7845692928     -0.6192097618
C     -1.4537910897     3.0510985431     0.619209762
C     -2.6642900418     1.275235955     -2.1542961706
C     -2.5306966234     -0.0803853059     -2.5564592325
C     -2.8572050186     1.6690307054     -0.8380600212
C     -1.9883442979     -2.3119274027     -1.7670082137
C     -1.453559491     -3.0508744711     -0.6190129291
C     -2.7442427076     -1.0965189945     -1.5708861424
C     -1.0080822102     -2.878285979     1.7676458291
C     -1.9151311195     -2.7845515882     0.6195386222
C     -0.7965922931     -1.1828233543     3.5638816075
C     -1.5611889521     -2.0549561172     2.7523393588
C     -0.6261291341     1.2814419088     3.5634819793
C     -0.9990197646     2.3794465627     2.7520037982
C     -1.9883223415     2.3120847807     1.7674815593
C     -1.4302214508     0.1387464132     3.5155381779
C     -3.0999773859     0.7004813972     0.2018184239
C     -3.0990659956     -0.7001911598     -0.2008129103
C     -2.856493833     -1.6689089799     0.8389090918
C     -2.6647288636     -1.2754118534     2.155332874
C     -2.744569527     1.0964708207     1.5717093773
C     -2.5310225779     0.0801778484     2.5574185895


