60

 C     1.5130703909     -3.9090947671     0.5313230132
C     0.5363206337     -3.8336575216     1.5066725114
C     0.8888098346     -2.7797531966     2.4754044223
C     2.5088245459     -2.8846530946     0.8412845118
C     2.0748256116     -2.1573160514     2.03592828
C     2.770239159     -2.173551118     -0.3174835265
C     1.1424231607     -3.7959413731     -0.8593672032
C     1.9380544155     -2.7333329719     -1.4158468332
C     -0.2302589839     -3.8782031607     -1.2077254146
C     -0.8651277823     -3.716422993     1.1867765902
C     -1.2630034953     -3.8178427771     -0.1485371633
C     -0.2780153689     -2.0202396988     2.7331321541
C     -1.3929804971     -2.6479689397     2.0362776721
C     -0.188477959     -0.6005441908     2.8881210107
C     2.2071217597     -0.7520251114     2.1086980478
C     1.124184469     0.0003885225     2.7512901419
C     3.0842818887     -0.7735244287     -0.2450882818
C     2.9769970638     -0.0874437914     1.0503699126
C     2.8479288364     -0.0152021823     -1.4092359262
C     1.413431296     -1.8464602715     -2.3940134448
C     1.9124239763     -0.5080636621     -2.4190663232
C     -0.7008721649     -3.0743327185     -2.2759390519
C     0.0610520109     -2.0327330064     -2.8350381414
C     -2.343752901     -2.9492520881     -0.6320180548
C     -2.0220133347     -2.5365693649     -1.9485027405
C     -2.4083127641     -1.8296394082     1.574287908
C     -2.9140200186     -1.9813445862     0.2101986731
C     -1.3719926066     0.2142998534     2.5844877631
C     -2.4428120583     -0.4392503144     1.9303912115
C     -1.2567113149     1.677190637     2.421867798
C     1.19767755     1.4203539452     2.7103040814
C     0.0044853374     2.2784804779     2.5878980133
C     2.9939828291     1.3200826435     1.0486183888
C     2.2400066416     2.0413168827     2.0217028729
C     2.7361243427     1.4154144435     -1.3671794271
C     2.911453957     2.0999226147     -0.1772869773
C     1.1070118657     0.5826354686     -2.8356062223
C     1.6715196395     1.7993705555     -2.2937744317
C     -0.8221515786     -0.8648684466     -2.9852026708
C     -2.1018534979     -1.1951165288     -2.3669036876
C     -0.3307293345     0.439512408     -2.9631112449
C     -3.2282799037     -0.6728263129     -0.2889303739
C     -3.1394593319     0.2362207002     0.8370544971
C     -2.7657606317     -0.2173977464     -1.5652259445
C     -2.2003242747     2.371790821     1.5559075853
C     -3.0137756735     1.5692768045     0.6360386126
C     -1.8444413145     3.5370490311     0.8737856601
C     0.3862585134     3.4770209565     1.8453408748
C     1.7359503281     3.281150263     1.4355190256
C     2.1099152855     3.3066266806     0.077438413
C     -0.5174012517     4.0631766271     0.9244625752
C     0.8827259638     2.8931128294     -2.0551740758
C     1.1508205226     3.7452499112     -0.8881268273
C     -0.0842177151     4.239601278     -0.4385428004
C     -1.2004967988     1.5417701016     -2.4947515976
C     -2.4104588801     1.1917238037     -1.7411342747
C     -2.8359091236     2.0966744082     -0.7176093435
C     -2.2282237921     3.3531601653     -0.5506745158
C     -0.582040185     2.803838286     -2.2504600134
C     -1.1440470925     3.7281606029     -1.3330257877


