60

 C     -0.214562873     -4.4708244409     -0.0735527738
C     -1.3917582256     -3.9173303383     -0.521318309
C     -1.1032477314     -3.0649483863     -1.6955329177
C     0.8492434511     -4.0173968749     -0.9124018978
C     0.3154159753     -3.1000260243     -1.9069934675
C     1.8832422052     -3.5371870398     -0.0829517798
C     0.0461735788     -3.8811900625     1.2715260674
C     1.3371114759     -3.3281891649     1.2908707352
C     -2.0635251798     -3.2886420675     0.6097788052
C     -1.0665410393     -3.1196725315     1.6884302938
C     -2.9391824361     -2.302217233     0.3310732967
C     -1.8470706887     -1.8913218005     -1.8973046068
C     -3.0054073462     -1.7274634856     -1.0342757353
C     -1.1870409706     -0.676014885     -2.4143719978
C     1.0185509006     -1.8895533284     -2.2412347153
C     0.2633135277     -0.6604993004     -2.5322807691
C     2.7425183723     -2.587381529     -0.6044714148
C     2.3537679153     -1.7738009702     -1.7323587482
C     3.4128913228     -1.7409541223     0.3214559905
C     1.5734056826     -2.0744945511     1.9472613048
C     2.769757763     -1.3846350883     1.5400027628
C     -0.8999517983     -1.8188746439     2.281980078
C     0.449936224     -1.2905784327     2.4554892173
C     -3.1174663406     -1.2054180122     1.2721549871
C     -2.0422918167     -0.8988963582     2.1823988933
C     -3.5744657917     -0.4813361213     -0.8728416001
C     -3.7572864967     -0.1801770386     0.5595075128
C     -1.9148084903     0.5933129843     -2.3269222034
C     -3.1067837034     0.6850415984     -1.5239345306
C     -1.1999977398     1.8099225524     -2.4987420457
C     0.9871358225     0.6371334967     -2.5226839053
C     0.2465595837     1.8270403836     -2.5921840707
C     2.9912734381     -0.4845848945     -1.5418750305
C     3.756614429     -0.5280803573     -0.3459638636
C     2.3539821548     0.7302381406     -1.9522397972
C     2.9365483663     0.0458308566     1.731897134
C     3.666331101     0.550572088     0.57613684
C     0.6363346974     0.1596842957     2.6590578095
C     1.9096315396     0.8238019543     2.3159835107
C     -1.8283064411     0.4812278034     2.4357900508
C     -0.5116259184     0.9839303682     2.7126581604
C     -3.4798674951     1.1810875613     0.7457962285
C     -3.2656894063     1.7832903696     -0.5801067972
C     -2.5920425076     1.5306833752     1.7744354688
C     -1.5961150112     2.9884657676     -1.8058601411
C     -2.4827969481     2.9147366534     -0.6981766329
C     0.7174461437     3.0772629605     -1.9789149393
C     -0.4184858669     3.7250028375     -1.4211895042
C     2.7577182598     1.9112061806     -1.2708966889
C     3.3756283864     1.7961626234     0.0616530178
C     1.9073232719     3.0827098051     -1.247246631
C     1.9141149669     2.23785672     1.9833384833
C     2.6903497748     2.7015753063     0.9039924619
C     1.8847976023     3.6023443561     0.0904805454
C     -0.4879019575     2.3953429578     2.3125469821
C     -1.7487892183     2.6927997289     1.6324059811
C     -1.7565592147     3.4606140401     0.4645230332
C     -0.500993044     4.0110585123     -0.0228630376
C     0.6751741628     3.016444863     1.9440907527
C     0.6782697017     3.8853075423     0.7549741477


