60

 C     1.3548619689     4.3692048539     -1.2347993156
C     0.3023375046     4.6892950559     -0.2974961066
C     0.7146839575     4.3485550777     1.0084271265
C     2.3598513877     3.650666276     -0.4988989859
C     2.0111210333     3.6631409485     0.8699670118
C     2.5226771401     2.3390035606     -1.0904686167
C     0.7704062478     3.4068864869     -2.109013082
C     1.5347712053     2.185546674     -2.1240186898
C     -0.9618618726     4.1569661628     -0.7776507453
C     -0.6467641023     3.2953227446     -1.9284807311
C     -1.8914856665     3.694448237     0.1548636688
C     -0.1134829543     3.5277793437     1.8381549581
C     -1.4528046214     3.3199356756     1.5041463832
C     1.9568031062     2.4557572309     1.6191553073
C     0.6669791058     2.3621089735     2.2598786975
C     2.8067299043     1.2030465015     -0.3037833369
C     2.5355024728     1.2474512782     1.1183659354
C     2.6788274659     -0.0630147421     -0.9658144125
C     0.9276423139     0.9166751831     -2.3817890133
C     1.7004926636     -0.2513516332     -2.0192372228
C     -1.2951778633     2.0322337959     -2.1258917016
C     -0.5084084934     0.8208986829     -2.4685498176
C     -2.8022120442     2.6855386138     -0.2736344891
C     -2.5042414064     1.8522353378     -1.3854960399
C     -2.0831191469     2.0414631218     1.820389776
C     -3.0457487683     1.7857957837     0.8169896688
C     0.0759440185     1.0934910722     2.5585418831
C     -1.3535942289     0.9228139609     2.3701100405
C     2.1970771781     0.0218052047     1.7897105052
C     0.9426353946     -0.070960341     2.5286902709
C     3.043395435     -1.1751422063     -0.1816861925
C     2.7261681993     -1.1611143281     1.2407605162
C     2.8290848102     -2.4627727596     -0.6719464714
C     1.1762524277     -1.5764521327     -2.2641559621
C     1.9261290631     -2.6957498345     -1.732184348
C     -1.093928037     -0.5117904379     -2.3728667719
C     -0.2664381804     -1.7058498545     -2.4657810462
C     -2.9372099595     0.5059161173     -1.0699652768
C     -3.2502937828     0.4658496966     0.3298835302
C     -2.3797848386     -0.6245574234     -1.680891842
C     -1.876964003     -0.4261071136     2.1680153593
C     -2.8795073817     -0.6441888635     1.115694226
C     0.3629287199     -1.3566759486     2.6701020408
C     -1.0480809959     -1.5318275929     2.4713600325
C     2.2564572334     -2.4833632189     1.594025584
C     2.4917185191     -3.3511265572     0.4631643723
C     1.0294682375     -2.5832498935     2.2637242096
C     1.2585061345     -3.939654933     -1.3848518617
C     1.562058583     -4.2679043634     0.0486624349
C     -0.8731924445     -3.0014696918     -2.1452074277
C     -0.072573797     -4.0887511166     -1.5922584501
C     -2.7045595862     -1.8438756316     -1.0208691899
C     -2.8768156095     -1.8684734927     0.4208767487
C     -2.0646458241     -3.0285341951     -1.4041484286
C     -1.2586116271     -2.8814720133     1.9318057631
C     0.026388521     -3.5597248429     1.8384299362
C     0.3012127323     -4.4255465241     0.7395509284
C     -0.6954990663     -4.5404196569     -0.3012623138
C     -2.2194998154     -3.0547481603     0.9258478202
C     -1.8926063673     -3.8839619486     -0.2061966462


