60

 C     0.298293548     -4.3770606111     0.4288931133
C     -0.4932402387     -3.9067789188     1.452079426
C     0.3190931231     -3.0611641654     2.3479270888
C     1.6567100014     -3.840791913     0.6599171056
C     1.6113599728     -2.9130623926     1.8038953188
C     2.1390707493     -3.4143710233     -0.5515151794
C     -0.0729768324     -4.0936051655     -0.9534531769
C     1.0907094172     -3.5607819981     -1.587016385
C     -1.2932516797     -3.4540196354     -1.2100422742
C     -1.7401988439     -3.2229839204     1.2174009673
C     -2.1843329449     -3.0787933962     -0.1065075062
C     -0.4451724765     -1.9377603113     2.6907900254
C     -1.7673416315     -2.0592735212     2.0794351793
C     0.1881411004     -0.6612895133     2.8235920591
C     2.2052800193     -1.6128311219     1.7128255332
C     1.554974946     -0.4710914772     2.3706248585
C     2.7575661565     -2.1437108052     -0.6846860367
C     2.9614245111     -1.3296746997     0.4910783307
C     1.0684704404     -2.3518233898     -2.2967893048
C     2.1888156496     -1.5240256738     -1.8433210155
C     -1.3367690127     -2.3415604592     -2.1449197572
C     -0.15798801     -1.6846344995     -2.6163240844
C     -2.9099104795     -1.8865888127     -0.474457378
C     -2.4822407971     -1.5363219716     -1.8111256724
C     -2.5016400091     -0.8998586628     1.7496934482
C     -3.1963698613     -0.8420055234     0.4588885206
C     -0.7013944844     0.4439255192     2.8259787991
C     -2.0345294684     0.3192368095     2.3270084947
C     -0.2378822044     1.8008896361     2.6332668724
C     2.0214665057     0.9015994092     2.1209416886
C     1.1328546445     2.0708900535     2.3399922416
C     3.2903448219     -0.0130511236     0.2210861559
C     3.05708082     1.0554503843     1.1562659024
C     2.216252069     -0.1251337997     -2.0192184346
C     3.1167562453     0.5395503835     -1.1285848767
C     -0.1492745109     -0.2071078073     -2.814320538
C     1.0625302089     0.5996130154     -2.5376935935
C     -2.5663192311     -0.2366063903     -2.2633198682
C     -1.3855078531     0.4528667196     -2.7928417942
C     -3.48685376     0.453569132     -0.0870828142
C     -3.2776521686     0.6913151976     -1.4681339648
C     -2.3992892833     1.6157309605     1.7894269756
C     -1.325653639     2.5557551164     2.0745842355
C     -3.1139348266     1.6871003343     0.6038016064
C     -1.042748114     3.6037809315     1.1822160721
C     1.3783089322     3.3165261468     1.6295464234
C     0.2843327248     4.0243379643     1.0582497839
C     3.1952480981     2.2723964269     0.4076516971
C     3.0954856616     1.9161202803     -1.0293988702
C     2.4316563638     3.3743017367     0.6355217196
C     0.969141488     2.0391923695     -2.2860050379
C     0.5576652142     4.1733954124     -0.3958800258
C     2.075905769     2.6994039636     -1.6203182745
C     1.8338012673     3.775922048     -0.6692482718
C     -1.5008908882     1.8547221821     -2.4215613911
C     -2.6910622894     1.992882168     -1.6506121191
C     -2.6884660756     2.6726513414     -0.4107021618
C     -1.6440158689     3.5487343367     -0.1638911104
C     -0.3658336696     2.6557204664     -2.127411199
C     -0.5659989166     3.6801820576     -1.1261974268


