60

 C     -0.6483593598     -2.655978729     -2.6188044338
C     -1.1837300192     -1.425684118     -3.051230668
C     -0.0571602378     -0.6197104675     -3.5391746243
C     0.8153331957     -2.5769355186     -2.6497536126
C     1.1826482759     -1.3372996762     -3.2188300908
C     1.3291142739     -3.0349375286     -1.4245643103
C     -1.040700132     -3.283461981     -1.420352359
C     0.1945594853     -3.6091862252     -0.6830501204
C     -2.1358264119     -2.7460889092     -0.731916333
C     -2.2521502627     -0.807433051     -2.3144387384
C     -2.7567550917     -1.5398543513     -1.1936930259
C     -2.3305153014     0.6640539268     -2.283225162
C     -0.0956467963     0.7493850089     -3.4234081375
C     -1.2668996833     1.4222411965     -2.8661131979
C     1.094933762     1.4942064189     -3.0237760781
C     2.2541667755     -0.6482309699     -2.6459701635
C     2.2353972669     0.8033321246     -2.6068803782
C     2.3498211419     -2.2781642528     -0.7377348352
C     2.8584861308     -1.1345659207     -1.4237443994
C     2.3498211419     -2.2781642528     0.7377348352
C     0.1945594853     -3.6091862252     0.6830501204
C     1.3291142739     -3.0349375286     1.4245643103
C     -2.1358264119     -2.7460889092     0.731916333
C     -1.040700132     -3.283461981     1.420352359
C     -3.232177194     -0.8417163837     0.
C     -2.7567550917     -1.5398543513     1.1936930259
C     -3.0325980027     1.2866305887     -1.1945617015
C     -3.3925318649     0.5113092599     0.
C     -2.6553669276     2.5574151126     -0.7339480999
C     -0.8081099759     2.6551914548     -2.2771792723
C     0.6490780956     2.662571405     -2.3009883135
C     -1.4864754388     3.2134874564     -1.1843937506
C     1.3584355102     3.1067018153     -1.1810567872
C     2.9393525289     1.2302569656     -1.419350414
C     3.3305080201     0.0304679883     -0.6919315174
C     2.5198382216     2.3667609777     -0.7272602928
C     2.8584861308     -1.1345659207     1.4237443994
C     3.3305080201     0.0304679883     0.6919315174
C     2.2541667755     -0.6482309699     2.6459701635
C     0.8153331957     -2.5769355186     2.6497536126
C     -0.6483593598     -2.655978729     2.6188044338
C     1.1826482759     -1.3372996762     3.2188300908
C     -2.2521502627     -0.807433051     2.3144387384
C     -1.1837300192     -1.425684118     3.051230668
C     -0.0571602378     -0.6197104675     3.5391746243
C     -3.0325980027     1.2866305887     1.1945617015
C     -2.6553669276     2.5574151126     0.7339480999
C     -2.3305153014     0.6640539268     2.283225162
C     -0.7414401144     3.6575246658     0.
C     0.643390887     3.5825407769     0.
C     -1.4864754388     3.2134874564     1.1843937506
C     2.5198382216     2.3667609777     0.7272602928
C     2.9393525289     1.2302569656     1.419350414
C     2.2353972669     0.8033321246     2.6068803782
C     1.3584355102     3.1067018153     1.1810567872
C     -0.0956467963     0.7493850089     3.4234081375
C     -1.2668996833     1.4222411965     2.8661131979
C     -0.8081099759     2.6551914548     2.2771792723
C     1.094933762     1.4942064189     3.0237760781
C     0.6490780956     2.662571405     2.3009883135


