60

 C     4.4093049232     1.1081212878     -1.489927267
C     4.8600556492     0.5739410892     -0.225322666
C     4.4648223391     -0.7615649189     -0.1455365281
C     3.6400130504     0.0522026904     -2.1341189844
C     3.6966663253     -1.1231548571     -1.3497849895
C     2.3141455835     0.5246565882     -2.4902768688
C     3.4245708746     2.0627513916     -1.1747360669
C     2.2059157005     1.8565220727     -1.9458624414
C     4.0928593386     1.2327383745     0.8470766607
C     3.2793962129     2.2422078516     0.271576084
C     3.8402258729     -1.0159225259     1.1579555004
C     3.5064688189     0.2741185047     1.7529109354
C     2.9362645308     -2.0195102765     1.2374974788
C     2.5618981756     -1.9918761359     -1.2420765323
C     2.4509308775     -2.6956514996     0.005951852
C     1.181004378     -0.3183227518     -2.4686434736
C     1.3115655467     -1.6741836304     -1.9431031442
C     -0.1227973784     0.3467754718     -2.443554318
C     0.9944301617     2.3271430428     -1.462879337
C     -0.215757611     1.6972385223     -1.9724506827
C     2.0039230245     2.5036588059     0.8013726423
C     0.9513540323     2.9331794125     -0.126116041
C     2.2101460611     0.4978410013     2.2880205549
C     1.5751938373     1.7624510363     1.9886585612
C     1.780083317     -1.9132878042     2.1312182285
C     1.31469188     -0.6609714268     2.5742167248
C     1.2493179153     -3.2937464451     0.3384886944
C     0.8387573542     -2.8766984169     1.6872650658
C     0.0844975826     -2.3771236226     -1.608022926
C     0.1050649105     -3.2577523474     -0.4830329582
C     -1.3251064423     -0.4805439449     -2.499332744
C     -1.2181812333     -1.8529500404     -2.0311175903
C     -2.5884936799     0.1795954048     -2.4650597111
C     -1.4939858499     2.217924519     -1.5159485394
C     -2.6796568126     1.5094526199     -1.8933689077
C     -0.3001482931     3.2062534738     0.4112365679
C     -1.5346697075     2.9991993443     -0.3344888651
C     0.2415066685     1.9423685328     2.405559676
C     -0.5657303529     2.8870429077     1.7805922194
C     -0.1545058243     -0.4956963245     2.7157040686
C     -0.6465889029     0.8109532131     2.7874344317
C     -0.5414976637     -2.727716595     1.7274561926
C     -1.0222879437     -3.2194469171     0.4372235437
C     -1.1255650893     -1.5301820705     2.2687543128
C     -2.39163521     -2.3832385337     -1.3844584797
C     -2.2276948964     -2.8291044645     -0.0079870259
C     -3.7936064948     -0.5143732118     -2.0580147803
C     -3.6437776388     -1.7437362956     -1.4251742481
C     -3.8875529197     1.5813218575     -1.1018025092
C     -4.5941811528     0.3692118594     -1.2184621887
C     -2.594707764     2.6949484733     0.62976555
C     -1.9414245536     2.4354228526     1.8468562991
C     -2.0069432924     1.1507524715     2.4560832815
C     -3.6841832707     1.8908793993     0.2933044783
C     -2.4853980919     -1.1917277238     1.8688961533
C     -3.1099443205     -2.0192208059     0.8346359703
C     -4.119644779     -1.5455253376     -0.0053264162
C     -4.5908030482     -0.2208150916     0.0925173318
C     -2.9581173786     0.1870243939     1.9617221292
C     -3.9604871465     0.6761453499     1.0460361412


