60

 C     0.7153561377     -4.7756566027     -1.0925331862
C     1.8335593497     -4.0263846654     -0.6281492712
C     1.7909986209     -3.8880012223     0.7803429651
C     -0.1931109243     -4.873193016     0.0598581164
C     0.4653660057     -4.3745927436     1.2186225369
C     -1.45412781     -4.3209869967     -0.2892949991
C     0.0482340928     -3.9071841258     -2.0151559733
C     -1.3089071187     -3.7433790782     -1.6485000982
C     1.9709514203     -2.7956850483     -1.4023021876
C     0.8278503634     -2.6998755708     -2.2654024326
C     2.4747023842     -1.6192653719     -0.8150381558
C     2.030953994     -2.6397703807     1.3813018551
C     2.564530262     -1.5428511113     0.6341150682
C     -0.109444861     -3.3579292836     2.0153884311
C     0.915517079     -2.323176575     2.2351823467
C     -2.0710297324     -3.3421994393     0.5158320396
C     -1.4487209929     -2.8838303383     1.7502409684
C     -1.901012103     -2.4733386689     -1.6706221143
C     -2.5360722713     -2.2891189084     -0.3846210724
C     0.2008447924     -1.4256247933     -2.4800231204
C     -1.2259869045     -1.3165333114     -2.2273007291
C     2.2364683495     -0.3891413411     -1.5443027515
C     1.0163453447     -0.2409542734     -2.3210598823
C     2.8277398708     0.7468546544     -1.0066380056
C     2.5307242978     -0.2452052764     1.2322836522
C     3.0530210523     0.7820979979     0.4267812375
C     0.607223803     -0.9762999886     2.587258041
C     1.5118714291     0.1013784606     2.2369830812
C     -1.7532681292     -1.5699931184     2.1777396592
C     -0.7650581133     -0.656817412     2.742529371
C     -2.868569824     -1.0127785415     0.0644338235
C     -2.6483833279     -0.7285002572     1.4492848844
C     -1.7674789112     -0.023556021     -1.9591449304
C     -2.7527779299     0.0974769962     -0.868243822
C     0.439571773     1.081935411     -2.4316535425
C     -1.0134756579     1.1598054206     -2.3289159101
C     2.492461621     2.0842596289     -1.4223888112
C     1.2612218827     2.2790272157     -2.1353578094
C     2.9602969321     2.1227562717     0.8232182755
C     2.8709544665     2.9626276252     -0.3378486159
C     1.0860858661     1.481919783     2.3422260364
C     1.9473551252     2.5017056207     1.7837627934
C     -1.2202241345     0.6995491862     2.6257052681
C     -2.4617465078     0.6339784583     1.8811228726
C     -0.3501004988     1.800898079     2.4507270046
C     -3.0626887484     1.3664358896     -0.3600291879
C     -2.8261559249     1.6590269704     1.0557724974
C     -1.6131569065     2.4390858522     -2.0520240076
C     -2.6447391464     2.5159076421     -1.0473422835
C     0.5919287078     3.551838311     -1.9100814276
C     -0.8208492654     3.5945022194     -1.9083201391
C     2.0275664141     4.0339610371     0.0151198325
C     1.4252919606     3.7411100062     1.3605544993
C     1.0079715568     4.410538614     -0.8129689575
C     -0.9017168685     3.0456860522     1.8369759837
C     -2.1659761773     2.9570380591     1.1464386271
C     -2.360876038     3.5959483046     -0.1256870303
C     -1.3146392993     4.3398982899     -0.7022603976
C     0.0343200929     4.0231892551     1.3247950416
C     -0.2069909209     4.6513861693     0.0386142426


