60

 C     0.1692710423     4.1503354221     0.3716027015
C     -0.1311828871     3.9223702394     -0.9449401924
C     1.0569399613     3.3387661102     -1.6141592198
C     1.6077397308     3.782538095     0.5557402897
C     2.0886397279     3.1491611374     -0.6648009356
C     1.6888800603     3.1130577173     1.7407254655
C     -0.6161614729     3.5296939039     1.4144636722
C     0.3373115368     2.9710140656     2.3270160202
C     -1.7737483216     2.7727971976     1.0907614218
C     -1.2774976646     3.1708412186     -1.3238219649
C     -2.1806661699     2.7099307476     -0.3259074121
C     0.6060111423     2.3054065261     -2.4431289616
C     -0.8388819933     2.2441644859     -2.3597890203
C     1.398805359     1.1083844949     -2.5815772294
C     2.7923992592     1.8960698789     -0.6183878015
C     2.5751854638     0.9457325146     -1.7196220419
C     2.3812924069     1.8680195957     1.8465051916
C     3.0775380778     1.3383309901     0.711016026
C     0.2381498885     1.667388865     2.7945104892
C     1.535226174     0.9974481829     2.6013281886
C     -2.0696813574     1.5867917753     1.9250811222
C     -0.9805435981     0.9293067473     2.6549708342
C     -3.1775371303     0.7779498079     1.5430993665
C     -3.0547098804     1.6467507839     -0.7345337465
C     -3.7430432484     0.8910366935     0.2011595855
C     -1.5188368548     1.0213953401     -2.5898033521
C     -2.7152987118     0.7762984035     -1.8764705041
C     0.7097616365     -0.0410424394     -3.0339676351
C     -0.7401864621     -0.1073577744     -2.9844323219
C     1.207804086     -1.3681307909     -2.7999474114
C     3.0855650265     -0.3821028048     -1.5789584296
C     2.4054387259     -1.5519881093     -2.1418135127
C     3.4027072637     -0.0342818282     0.822413876
C     3.6198393552     -0.803772568     -0.3378760847
C     1.6331044914     -0.4138242473     2.5198252798
C     2.736328994     -0.9081727869     1.7814311176
C     -0.9035068347     -0.5231849321     2.7738523949
C     0.4069409392     -1.2200609115     2.6924987947
C     -3.1981976539     -0.5882227754     1.8840728233
C     -2.0682522103     -1.248360769     2.402710533
C     -3.8881493519     -0.4546386531     -0.3320950701
C     -3.1453037276     -0.5546661666     -1.5673354866
C     -3.6094890207     -1.3466857008     0.6819316609
C     -1.1429362067     -1.4407674976     -2.6381224286
C     0.0574720217     -2.2495605134     -2.5598203226
C     -2.2911579888     -1.6836856302     -1.8147525267
C     0.1524169028     -3.3030703756     -1.6761486203
C     2.5215450547     -2.677194526     -1.2014150792
C     3.2479683349     -2.1854331823     -0.0852800377
C     2.7097758095     -2.2506819113     1.2278415835
C     1.4241591749     -3.5283063142     -0.9738633931
C     0.4553252334     -2.5605305198     2.2547309008
C     1.589671013     -3.0595243069     1.46685828
C     1.073171926     -3.8225172655     0.3768542344
C     -1.9430784531     -2.5301688382     1.7009383248
C     -2.7611533217     -2.4714751709     0.5032900504
C     -2.1576303545     -2.7309124622     -0.7772054988
C     -0.963029666     -3.5252247502     -0.7483502902
C     -0.7375373515     -3.1848040213     1.6908348162
C     -0.3649882265     -3.8606302971     0.4902617869


