60

 C     -0.8913437882     -4.2659772577     0.2043022752
C     0.0426478086     -4.1345653046     1.1809288904
C     1.3784779145     -4.0286806347     0.5384987248
C     -0.2005806427     -4.1638066791     -1.1240090435
C     1.1581975817     -3.7839088905     -0.894429045
C     -1.0170106609     -3.3965971592     -1.9146480968
C     -2.0630979451     -3.4171036974     0.1836602395
C     -2.2522589512     -3.0729526829     -1.1776168618
C     -2.2170895535     -2.3784665362     1.1945144617
C     -0.0543433209     -3.0771456997     2.2010854881
C     -1.1232228853     -2.1289013844     2.1638835899
C     2.1164158277     -3.1710969533     1.2937302965
C     1.2639271372     -2.6125587842     2.3750569028
C     2.837956323     -2.0962391034     0.709073268
C     1.6766708159     -2.5928999611     -1.4799229484
C     2.6987698501     -1.8626631939     -0.7107748799
C     -0.5570818332     -2.1849957106     -2.5261750491
C     0.7840522215     -1.7633092199     -2.3460851252
C     -2.6572311139     -1.7888209065     -1.57232619
C     -1.6245996708     -1.2055434336     -2.4379979391
C     -2.9933266004     -1.2700475584     0.7990544961
C     -3.2308577565     -0.9791533505     -0.6042866624
C     -2.9121875983     0.003401127     1.4603094554
C     -0.8206589756     -0.7401609814     2.5455027926
C     -1.8291878057     0.2890312769     2.3254145734
C     1.5828415896     -1.2567897306     2.4933479165
C     2.7006868861     -0.9654830791     1.5823517075
C     0.5636393266     -0.2920895184     2.6709664305
C     2.9817655621     0.338050829     1.1557905319
C     3.0608819344     -0.586861303     -1.1277778919
C     3.4772195924     0.4312403919     -0.1914597381
C     1.0388074869     -0.343084409     -2.5653426088
C     2.3540065287     0.1216887421     -2.2070357532
C     -1.3970527582     0.1795523892     -2.4464109112
C     -0.0258407414     0.6429361402     -2.6518335217
C     -3.2329532811     0.4349039354     -0.7863122482
C     -3.3560062309     1.0329118759     0.5246462956
C     -2.3784401056     1.0370463962     -1.7606492506
C     -3.0350031169     2.358422172     0.7141302797
C     -1.4615894601     1.6803124337     2.4724905705
C     -2.1919107923     2.702528363     1.8318693408
C     0.9549182475     1.1126434469     2.4521237078
C     2.2043543863     1.4454191197     1.7263084989
C     -0.0538410511     2.0806632695     2.5216926511
C     2.2785909373     2.7029582324     1.0617450154
C     3.4125005093     1.670084328     -0.8719707304
C     2.6543480292     1.4713574451     -2.1229106639
C     2.8873690449     2.7714533267     -0.2467094629
C     0.2726155703     2.0770398943     -2.433108561
C     1.6404849152     2.4782752645     -2.19312232
C     1.9270062576     3.4258128072     -1.1547781362
C     -2.0623393981     2.4126393744     -1.5478353756
C     -2.5478174864     3.1011341033     -0.4201736346
C     -0.7272740051     2.9281463882     -1.8813008905
C     -1.2622432518     3.7291244743     1.3930231893
C     0.0581569124     3.3648237433     1.8476851257
C     1.1471998457     3.6037949591     1.0284747571
C     0.9115752864     3.9939013654     -0.3913492643
C     -1.4835964733     3.9877583935     0.0359695097
C     -0.4060969747     3.9508473153     -0.8992782785


