60

 C     0.7483414689     0.0418686129     -4.2728413433
C     1.0743576359     1.2825526912     -3.8131867027
C     -0.1749600342     2.0512643199     -3.5770037305
C     -0.7483414689     -0.0418686129     -4.2728413433
C     -1.269687941     1.1256832252     -3.6210522166
C     -1.0743576359     -1.2825526912     -3.8131867027
C     1.269687941     -1.1256832252     -3.6210522166
C     0.1749600342     -2.0512643199     -3.5770037305
C     2.1054654627     -0.9739399906     -2.443207198
C     1.9369414728     1.4892133668     -2.6765182275
C     2.4187886723     0.373439806     -1.9200302448
C     0.0378693558     2.8960122841     -2.5015380849
C     1.4062971538     2.6440111604     -1.9945636808
C     -0.9922240047     3.0307905926     -1.5468637864
C     -2.1054654627     0.9739399906     -2.443207198
C     -2.0311885203     2.023119068     -1.4881942779
C     -1.9369414728     -1.4892133668     -2.6765182275
C     -2.4187886723     -0.373439806     -1.9200302448
C     -0.0378693558     -2.8960122841     -2.5015380849
C     -1.4062971538     -2.6440111604     -1.9945636808
C     2.0311885203     -2.023119068     -1.4881942779
C     0.9922240047     -3.0307905926     -1.5468637864
C     2.38258449     -1.8410338103     -0.0935688589
C     2.6488660092     0.566122706     -0.468217645
C     2.6488660092     -0.566122706     0.468217645
C     1.6692975394     2.8393869639     -0.6655820159
C     2.38258449     1.8410338103     0.0935688589
C     -0.6698490581     3.4298036671     -0.2129704908
C     0.6698490581     3.4298036671     0.2129704908
C     -2.38258449     1.8410338103     -0.0935688589
C     -1.6692975394     2.8393869639     0.6655820159
C     -2.6488660092     -0.566122706     -0.468217645
C     -2.6488660092     0.566122706     0.468217645
C     -1.6692975394     -2.8393869639     -0.6655820159
C     -2.38258449     -1.8410338103     0.0935688589
C     0.6698490581     -3.4298036671     -0.2129704908
C     1.6692975394     -2.8393869639     0.6655820159
C     -0.6698490581     -3.4298036671     0.2129704908
C     1.4062971538     -2.6440111604     1.9945636808
C     2.4187886723     -0.373439806     1.9200302448
C     1.9369414728     -1.4892133668     2.6765182275
C     2.0311885203     2.023119068     1.4881942779
C     0.9922240047     3.0307905926     1.5468637864
C     2.1054654627     0.9739399906     2.443207198
C     -1.4062971538     2.6440111604     1.9945636808
C     -0.0378693558     2.8960122841     2.5015380849
C     -2.4187886723     0.373439806     1.9200302448
C     -1.9369414728     1.4892133668     2.6765182275
C     -2.0311885203     -2.023119068     1.4881942779
C     -0.9922240047     -3.0307905926     1.5468637864
C     0.0378693558     -2.8960122841     2.5015380849
C     -2.1054654627     -0.9739399906     2.443207198
C     1.0743576359     -1.2825526912     3.8131867027
C     -0.1749600342     -2.0512643199     3.5770037305
C     -1.269687941     -1.1256832252     3.6210522166
C     1.269687941     1.1256832252     3.6210522166
C     0.1749600342     2.0512643199     3.5770037305
C     -1.0743576359     1.2825526912     3.8131867027
C     0.7483414689     -0.0418686129     4.2728413433
C     -0.7483414689     0.0418686129     4.2728413433


