60

 C     0.0378782827     4.0244035295     -1.1585215918
C     1.2558446145     3.8622355243     -0.5537806744
C     1.0816811762     3.8068696849     0.9190114063
C     -0.9556526619     4.1085528737     -0.0652883261
C     -0.3023438685     3.7871511463     1.2044770371
C     -2.0700306217     3.4286166191     -0.4532261208
C     -0.4493930204     3.0301762532     -2.1162621947
C     -1.8459097053     2.8476394221     -1.7937792183
C     0.34936265     1.9208940524     -2.481017483
C     2.1461856416     2.825813549     -0.9399966785
C     1.7398633601     1.9156531875     -1.9887133994
C     1.9727109651     2.828042779     1.3975688794
C     2.72869833     2.2780970181     0.2599880282
C     1.5119844344     1.9351402921     2.3641903628
C     -0.8475531791     2.7393461859     2.0409767505
C     0.1097436333     1.9117772496     2.7021622231
C     -2.7065212956     2.4391519439     0.3740608201
C     -2.1332621156     2.091539619     1.6512092061
C     -2.4237961921     1.6066134523     -1.8054596898
C     -3.1287760866     1.403109595     -0.5042304221
C     -0.3106695525     0.6013679052     -2.7099704709
C     -1.7318011197     0.4916993328     -2.4045706667
C     0.461113284     -0.6266361869     -2.7654326057
C     2.4607835251     0.7279919324     -2.0383642179
C     1.8893521359     -0.5193803365     -2.581648624
C     3.2625153484     0.9763263588     0.2914129473
C     3.3771078917     0.3527649441     -0.9956816479
C     2.0300668821     0.5778016842     2.4086135621
C     2.9788917096     0.1080338659     1.4577646796
C     -0.1857039134     0.5409869946     3.0830670705
C     0.9953313066     -0.2792066061     2.9017454434
C     -2.4101844147     0.7750699977     2.1029705242
C     -1.4284841311     0.0020091786     2.8458023772
C     -3.4114367335     0.1071845434     -0.0591620147
C     -3.1429071805     -0.182237037     1.3125846215
C     -2.2896955121     -0.7692334953     -2.1525700216
C     -3.2584817079     -0.958658581     -1.0273828498
C     -0.1483280258     -1.9398387362     -2.4978632556
C     -1.5612636384     -1.9784017181     -2.3255457676
C     0.6451902105     -2.9995967727     -1.8192513553
C     2.6621491848     -1.5890276253     -2.1363514174
C     3.5590769474     -1.0497321487     -1.1002734066
C     2.0329140104     -2.7669301103     -1.6062565603
C     3.0330165011     -1.3107057696     1.2863141729
C     3.4548662339     -1.8558851541     0.0164306788
C     2.607578473     -2.9933402047     -0.3122021013
C     0.8932628747     -1.6539453423     2.5288539792
C     1.9977563021     -2.1712989181     1.7944742172
C     1.7769391969     -3.2371680212     0.8021526095
C     -1.580936806     -1.4096103744     2.5358079271
C     -2.7498842364     -1.5289994328     1.6976580267
C     -0.4436264347     -2.2541492144     2.3758037629
C     -3.1734539166     -2.2682648304     -0.6121516526
C     -2.1850214819     -2.9535405547     -1.4592946528
C     -2.8499329538     -2.5821867146     0.7785363976
C     -0.0024109687     -3.7676544817     -0.7854811784
C     0.5055901612     -3.7326085284     0.5708512961
C     -0.6056183204     -3.3642061165     1.4589650667
C     -1.4200090664     -3.764228114     -0.6645098647
C     -1.8043670059     -3.5453896885     0.7507857565


