60

 C     -0.7893806616     -5.1561507941     -0.3076379865
C     0.4342503564     -4.9113746103     -0.894815473
C     1.4076403001     -4.4181198689     0.0723290512
C     -0.6485660149     -4.6701066892     1.0710982372
C     0.7153216466     -4.157074238     1.2969119055
C     -1.693578816     -3.7928556228     1.3246256631
C     -1.734725408     -4.2338995713     -0.9696669343
C     -2.4246459043     -3.5599368012     0.0253429172
C     0.3385283516     -3.8957318643     -1.9353438902
C     -1.0169969267     -3.4167096586     -1.9664300974
C     2.1491135059     -3.3844849047     -0.5612513954
C     1.4226178123     -2.9879919547     -1.8031752419
C     2.6198513764     -2.3701006668     0.2281858526
C     0.9255626111     -2.8876198768     1.9637358712
C     2.0747696738     -2.1482500768     1.5568740956
C     -1.5072386798     -2.5193218526     1.9256157807
C     -0.2137133699     -2.0434333844     2.3640987349
C     -2.6639885229     -2.1800839893     -0.0649897797
C     -2.3571966568     -1.581395971     1.2247413022
C     -1.227485908     -2.0123682887     -2.048352806
C     -2.2387333891     -1.410614144     -1.1856353556
C     1.2531703452     -1.6139413476     -2.0870552641
C     -0.0917921529     -1.1207117409     -2.3585061845
C     2.8845631094     -1.0713266215     -0.3424792045
C     2.2065447581     -0.6538896315     -1.5120188638
C     2.2413751976     -0.7567241628     1.8397118428
C     2.9925351417     -0.1513095273     0.7442414375
C     -0.0667561661     -0.6137873656     2.5454710705
C     1.2397012378     0.0381906104     2.4460762047
C     -2.2215862716     -0.2205069193     1.3674246561
C     -1.2145612365     0.2639744215     2.2946445248
C     -2.2966447425     0.0056882155     -1.0415876061
C     -2.5512624454     0.6221838293     0.2353738213
C     -0.3083721934     0.2893495535     -2.4295320956
C     -1.6017830629     0.828115158     -2.0036429223
C     2.0246572921     0.7646659131     -1.7234448426
C     0.8218487616     1.230353359     -2.4071704093
C     2.9318110149     1.1914357662     0.5039410504
C     2.6350400594     1.6739775371     -0.8183592342
C     1.354500929     1.5008530587     2.3472578865
C     2.2985432501     2.0893235555     1.4410139763
C     -1.0960539427     1.6452595658     2.3895985945
C     0.1877107744     2.2939874907     2.5982195269
C     -2.5198046881     2.0494897616     0.3936224078
C     -1.9534676598     2.5533342609     1.626067169
C     -1.8200166724     2.2013048698     -1.9552115172
C     -2.4236529923     2.8545715865     -0.7896691913
C     0.5627408112     2.6142566004     -2.4348559272
C     -0.8100572524     3.0999087705     -2.4483129595
C     2.2001933655     3.0447236497     -0.6781562761
C     2.0402700455     3.3303702018     0.75167495
C     1.3075366681     3.5651863928     -1.6096427614
C     0.066214516     3.6085246708     2.1182248969
C     -1.3073040414     3.8143735141     1.6154877524
C     0.9735181032     4.1644268374     1.1602390043
C     -1.8966791612     4.1922589262     -0.7371407214
C     -0.9246069782     4.3355228222     -1.8028343106
C     0.3692404067     4.6025906075     -1.186487488
C     -1.2521123416     4.6009903391     0.4606278207
C     0.1933932376     4.8706299999     0.170928335


