60

 C     1.3456839445     -4.4848939401     -0.6401681896
C     0.8215967136     -4.609333679     0.6414675876
C     -0.6060612904     -4.3732198475     0.6016236638
C     0.2544435155     -4.1153382828     -1.5598268737
C     -0.9680163901     -4.1290206561     -0.7980898593
C     0.6248374277     -2.906587752     -2.1922168941
C     2.3047292068     -3.4246383862     -0.6175428662
C     1.9343243559     -2.5014395903     -1.6357934071
C     1.458371497     -3.6561938969     1.5402656387
C     2.443855551     -2.9285487481     0.7580685524
C     -0.882079815     -3.3655733688     1.5457623492
C     0.4295265205     -2.8960339791     2.1158729721
C     -1.9150301139     -2.4080363986     1.3337189153
C     -1.9007084705     -3.1341955198     -1.0473329768
C     -2.553303973     -2.4489006652     0.0552317405
C     -0.3234976744     -1.8600296647     -2.4686975631
C     -1.6487849863     -2.0872243362     -2.0197350615
C     0.1289430015     -0.469648701     -2.6090549644
C     2.2433153046     -1.1466680034     -1.5009859882
C     1.4892960516     -0.1340833732     -2.237902487
C     2.5999200853     -1.5653473696     0.9490121752
C     2.8582847499     -0.7428213916     -0.2418211655
C     0.6015815902     -1.5165384956     2.4152672638
C     1.8354081119     -0.8771031865     2.0003011309
C     -1.8691818166     -1.1273143502     2.0650119113
C     -0.5790463888     -0.6878993763     2.6327298668
C     -2.8078077543     -0.1383394889     1.7234572627
C     -3.1415131137     -1.2533738867     -0.4576759624
C     -2.5251759503     -0.9694456541     -1.7305932055
C     -3.4663184588     -0.2157877463     0.4101544862
C     -0.8565514127     0.6086031029     -2.6265087966
C     -2.2102451021     0.3501723035     -2.0985816311
C     -0.3920173926     1.9399067064     -2.6058110451
C     1.9178104536     1.2441220702     -2.1175414089
C     0.9976772365     2.2778773283     -2.4776797235
C     3.1151936998     0.5938239697     -0.0589238155
C     2.8961171443     1.5615419504     -1.0954815643
C     1.994211443     0.5395058619     2.1508543095
C     2.8936572412     1.2301602     1.2552505844
C     -0.3765793165     0.6862266582     2.8613951491
C     0.9242496707     1.3081503324     2.6867577995
C     -2.5782863506     1.2740542946     1.9842826879
C     -1.3698518548     1.6810032054     2.5486040101
C     -3.5138502351     1.0767306803     -0.1251704938
C     -2.8858384748     1.3948586472     -1.3572812707
C     -3.0828648914     2.0393185711     0.8853763746
C     -1.1439569293     3.0065662038     -1.9034211791
C     -2.2573990823     2.6705365782     -1.1602387404
C     -2.331941706     3.0487737753     0.2810663396
C     1.0733063272     3.5810309787     -1.8399929996
C     -0.2228149838     3.9451858119     -1.3832365549
C     2.8775951334     2.8273340017     -0.4381403886
C     2.7840797791     2.5917052499     1.0290355997
C     1.9811819033     3.8173558416     -0.7820050641
C     0.7239743243     2.688446803     2.3260492348
C     -0.6974514665     2.8826553629     2.0941698485
C     -1.156313913     3.5780955757     0.9262525693
C     -0.156632489     4.1896112839     0.0671586367
C     1.665646027     3.3556700105     1.5110706112
C     1.2003041861     4.1845561754     0.432183069


