60

 C     1.4778563144     -4.3938786611     -0.87403607
C     0.1954798124     -4.6975306487     -0.25833555
C     -0.8017094312     -4.2387925885     -1.1193358556
C     1.2301260264     -3.5671695525     -2.0590276092
C     -0.15228776     -3.5169011731     -2.2557840815
C     1.9270655844     -2.3132614624     -1.9373854519
C     2.1415920405     -3.5651166746     0.0302055762
C     2.5547665944     -2.3453664439     -0.6312349304
C     0.1846105267     -4.1845005308     1.1097257243
C     1.4180827617     -3.4347829869     1.284473265
C     -1.0052205494     -3.6353279732     1.6272455441
C     -1.8856185684     -3.4254139006     -0.6586092657
C     -2.0857670809     -3.2337914152     0.7110727966
C     -0.8204131308     -2.2811316811     -2.4290498842
C     -1.958112207     -2.2574263649     -1.531867796
C     1.3353243936     -1.0759181295     -2.3489057581
C     -0.0862538053     -1.0511055657     -2.6305731442
C     1.9588710239     0.1418518303     -1.8832521537
C     2.7257116495     -1.165136305     0.0871265492
C     2.805385585     0.0388818213     -0.7114837927
C     1.4518777972     -2.1871941725     1.9835838398
C     2.2316748147     -1.0682296937     1.4574824563
C     -0.8931793855     -2.5814210759     2.5702423166
C     0.2957437924     -1.8313114481     2.745818548
C     -2.614849578     -1.9536424108     1.1676718577
C     -1.9688029989     -1.627259156     2.3821111899
C     -2.4914488355     -1.0309342262     -1.11263936
C     -2.8677659086     -0.8690686371     0.2806460146
C     -0.8021275438     0.1860330696     -2.5072649667
C     -2.1139399836     0.1452035556     -1.8763877732
C     1.3529894031     1.4251604248     -2.1711529643
C     -0.0728421443     1.4515832316     -2.5109562785
C     1.9562799012     2.6065947331     -1.6093200013
C     3.1567152007     1.1940846726     -0.0205786384
C     2.946412958     2.4755828057     -0.6083483388
C     2.0323395127     0.2587176521     1.9757087317
C     2.7422276439     1.3087306257     1.362427055
C     -0.083830297     -0.4282394875     2.9402486909
C     -1.5236162024     -0.3194159829     2.6810656414
C     0.7570015798     0.618655279     2.6337579843
C     -2.8575016018     0.4820463902     0.8263554433
C     -2.0410185777     0.7836481001     2.0027647043
C     -2.7084995941     1.3464580774     -1.4826249173
C     -3.0644704905     1.5247524968     -0.0834533036
C     -0.812320386     2.6638716289     -2.3104011119
C     -2.1632799117     2.595578148     -1.9065473292
C     1.1344663279     3.7905018643     -1.2553371744
C     -0.2080460751     3.8296653072     -1.5992957303
C     2.6859195928     3.440286874     0.4448236356
C     2.3728578993     2.6856828183     1.5828465829
C     1.512079906     4.1774381355     0.0762227036
C     0.1531228813     1.9590066787     2.3999005893
C     -1.2796458317     2.0398511447     2.0578391185
C     1.0016398103     3.0079677183     1.9983279002
C     0.5226044695     4.0709049668     1.1221447107
C     -2.7716017649     2.8923488167     0.2846244439
C     -2.3862020006     3.5863032531     -0.8707314783
C     -1.1631760653     4.290028054     -0.6325565149
C     -1.7525949434     3.1346898419     1.298960578
C     -0.8246826506     4.1271581321     0.7610533325


