60

 C     -0.28931093     5.0576341109     1.1651080733
C     0.4772239715     5.2802088114     0.
C     -0.28931093     5.0576341109     -1.1651080733
C     -1.5719892337     4.4665054355     0.7051839926
C     -1.5719892337     4.4665054355     -0.7051839926
C     -1.7501914555     3.2118881306     1.3807361941
C     0.3614345941     4.0208310695     1.893743627
C     -0.5554823747     2.9684976715     2.1887590417
C     1.6408539321     4.3522129404     0.
C     1.6185014173     3.6207591747     1.217789135
C     0.3614345941     4.0208310695     -1.893743627
C     1.6185014173     3.6207591747     -1.217789135
C     -1.7501914555     3.2118881306     -1.3807361941
C     -0.5554823747     2.9684976715     -2.1887590417
C     -2.2813617205     2.075924644     0.7282001797
C     -2.2813617205     2.075924644     -0.7282001797
C     -2.1259162346     0.7973864585     1.398443737
C     -0.0987011893     1.6472371224     2.4422774331
C     -1.0367418957     0.5625719086     2.3148320396
C     1.9860420965     2.2581769523     1.2290872559
C     1.2972881458     1.3593744502     2.1657187257
C     1.9860420965     2.2581769523     -1.2290872559
C     2.4307823075     1.6233844305     0.
C     -0.0987011893     1.6472371224     -2.4422774331
C     1.2972881458     1.3593744502     -2.1657187257
C     -2.1259162346     0.7973864585     -1.398443737
C     -1.0367418957     0.5625719086     -2.3148320396
C     -2.6197912738     -0.3337881472     0.720227144
C     -2.6197912738     -0.3337881472     -0.720227144
C     -2.43463661     -1.6848052567     1.1607116286
C     -0.6026655334     -0.8188068927     2.5393215868
C     -1.4230135259     -1.9725044781     2.1154243926
C     1.6732757176     0.0281321383     2.1826248619
C     0.7838613919     -1.0279729179     2.5969063807
C     2.7190158567     0.1992368519     0.
C     2.5531163218     -0.5526637175     1.1952227956
C     1.6732757176     0.0281321383     -2.1826248619
C     2.5531163218     -0.5526637175     -1.1952227956
C     -0.6026655334     -0.8188068927     -2.5393215868
C     0.7838613919     -1.0279729179     -2.5969063807
C     -2.43463661     -1.6848052567     -1.1607116286
C     -2.5750063381     -2.5449377049     0.
C     -1.4230135259     -1.9725044781     -2.1154243926
C     -2.0624571914     -3.8353954265     0.
C     -0.8462893485     -3.289684027     2.0931517749
C     -1.2964912887     -4.256408795     1.1559066421
C     1.3849362483     -2.2932484573     2.2005173462
C     2.389324486     -1.9761833603     1.202021275
C     0.6292366079     -3.4402016796     2.1048508184
C     2.389324486     -1.9761833603     -1.202021275
C     1.3849362483     -2.2932484573     -2.2005173462
C     2.4378495005     -2.7718190441     0.
C     -0.8462893485     -3.289684027     -2.0931517749
C     -1.2964912887     -4.256408795     -1.1559066421
C     0.6292366079     -3.4402016796     -2.1048508184
C     -0.1817975486     -5.0905495291     0.706516949
C     1.0123962534     -4.4663966658     1.1657050874
C     1.7816711258     -4.0463016458     0.
C     -0.1817975486     -5.0905495291     -0.706516949
C     1.0123962534     -4.4663966658     -1.1657050874


