60

 C     0.4930764127     -4.0669153298     0.664736628
C     -0.2789344244     -4.1130088979     -0.4834306407
C     -1.6257302485     -3.6805434293     -0.1438499681
C     -0.3494327558     -3.4655136241     1.7313862028
C     -1.6547224005     -3.2107960123     1.218541908
C     0.379004343     -2.4636535075     2.3569272053
C     1.7635541087     -3.4320997465     0.6775146672
C     1.7668979454     -2.5314126063     1.8296888323
C     2.3020919909     -2.9540391579     -0.534401756
C     0.1338836324     -3.3928164449     -1.6709169697
C     1.4242696125     -2.8673365365     -1.7105120409
C     -2.093140684     -2.8528127062     -1.183051613
C     -0.9746873305     -2.56594332     -2.1028793862
C     -2.9986371626     -1.865386973     -0.8529400281
C     -2.3108827206     -1.9850794264     1.5365412224
C     -3.2266747443     -1.521006903     0.5357956556
C     -0.2231090534     -1.1911902886     2.6886259016
C     -1.6161144064     -0.965320419     2.3446389859
C     0.6948413057     -0.055667167     2.8542332463
C     2.549997525     -1.4132062311     1.8188232573
C     2.0590386141     -0.1655901898     2.3987511781
C     3.137828538     -1.7861170327     -0.5277703627
C     3.3677296655     -1.0816319762     0.6673524354
C     1.6535526863     -1.5942180154     -2.3405679307
C     2.84678478     -1.0160265566     -1.7269566076
C     -0.7921116401     -1.2497089724     -2.5951140863
C     0.5851888922     -0.7557247335     -2.7646081616
C     -3.0417388789     -0.6357983359     -1.6313431257
C     -1.9008069571     -0.2819014305     -2.4238351713
C     -3.6782842557     -0.1828829577     0.5324958317
C     -3.6849705725     0.334069393     -0.8233367345
C     -2.1170468048     0.4258322135     2.3206436823
C     -3.1776237856     0.7949984884     1.4068785273
C     0.1722091989     1.2473396888     2.9031960706
C     -1.245861052     1.4798526471     2.7056287604
C     0.9034407999     2.3864242179     2.3887039489
C     2.7307592049     0.9144367462     1.7637648105
C     3.5084769592     0.3466910929     0.6533868216
C     2.1227349683     2.2144202624     1.6726028
C     3.0767972361     0.3353041906     -1.7623623596
C     3.540389982     1.0329301543     -0.5618685797
C     0.8425796366     0.6920526154     -2.8390337482
C     2.1221336537     1.2066453469     -2.43926805
C     -1.6066840197     1.1179593663     -2.4975971133
C     -0.2603537542     1.5915463899     -2.7156665271
C     -3.2651656123     1.6761954963     -0.7716774019
C     -3.1045592335     2.048239701     0.6368676207
C     -2.3119401447     2.1015547684     -1.7031574105
C     -1.3778383007     2.791929436     2.1457898978
C     -0.075159666     3.3118684944     1.9137456041
C     -2.1775668517     3.0088312106     0.9807738187
C     -0.1308979909     2.8877353666     -2.0719298451
C     -1.3629906053     3.1400237784     -1.3427615279
C     0.0001613905     3.8548255898     0.5875449284
C     -1.3098878683     3.6259454979     -0.0404123232
C     2.3034827815     2.9683039819     0.4526189263
C     2.9962084987     2.3458353527     -0.6195665729
C     2.2263868477     2.4852889113     -1.8327411454
C     1.1760975022     3.6938680723     -0.1331343574
C     1.0939556122     3.2824002565     -1.5415076302


