60

 C     0.3654369438     4.4214048429     0.8242010678
C     -0.9648110466     4.4178114656     0.4517194996
C     -1.0621999647     4.1134900528     -1.0110984376
C     1.1538070307     4.2394555989     -0.4167773668
C     0.2491886958     3.8367885636     -1.4839732358
C     2.2259749483     3.4533918163     -0.1161374338
C     0.8568132137     3.4824799361     1.8151087599
C     2.1104708785     3.0311557155     1.3105223316
C     -0.0180318451     2.4775195283     2.3709359519
C     -1.8698007709     3.5765331931     1.1210445267
C     -1.4266177817     2.6037860222     2.0545251175
C     -2.1192404323     3.1891174677     -1.1821251667
C     -2.7031374316     2.9049524301     0.1089930051
C     -1.9223804848     2.1034393063     -2.0566472081
C     0.5245520209     2.6064187733     -2.2217362468
C     -0.6119608016     1.8544551472     -2.6218396713
C     2.5788729443     2.2927726554     -0.8676161074
C     1.765313894     1.8275414694     -1.9464019037
C     2.5742198789     1.733507289     1.4314957827
C     3.0842423964     1.3394922628     0.1016709965
C     0.5011531931     1.1256334066     2.5963635385
C     1.841825707     0.7552016828     2.1763041875
C     -0.442705019     0.0216450934     2.7450853826
C     -2.2039160279     1.4094239624     1.784010793
C     -2.9238501658     1.5919402315     0.510116103
C     -1.7945481225     0.1536594684     2.1546339095
C     -2.4781162986     0.81854406     -1.746670311
C     -2.9182285269     0.5049965682     -0.4349169007
C     -0.5252252766     0.4376173848     -2.9176778547
C     -1.7213636427     -0.1890106804     -2.461267148
C     1.8468599729     0.4001005536     -2.2732158845
C     0.6999400601     -0.2754484428     -2.8722766935
C     3.1749345815     0.0297591334     -0.2214986612
C     2.716591836     -0.4364025492     -1.4993753658
C     2.2018803936     -0.6519515368     1.9502516076
C     2.9297641419     -1.0111987983     0.7732608157
C     0.0477615758     -1.278130046     2.9367645262
C     1.3832287877     -1.6590729443     2.4933411807
C     -0.792935951     -2.4067731036     2.7542802496
C     -2.3783817617     -1.0061857864     1.4529807795
C     -2.7574776924     -0.8525560524     0.0637608481
C     -1.9909704093     -2.2803928808     1.9211665323
C     -1.7933330852     -1.5506613192     -2.1227383984
C     -2.477647351     -1.9382474522     -0.8751454199
C     0.578212067     -1.6913961657     -2.8088934581
C     -0.687201321     -2.3340184909     -2.5886925869
C     2.5237286868     -1.8464757241     -1.3420049922
C     2.6559574791     -2.2189467647     0.079387462
C     1.5916804924     -2.5166400178     -2.1284299554
C     1.3056986347     -2.993546855     1.9573727392
C     -0.0166409559     -3.5022605856     2.298726999
C     1.8679283229     -3.2782840623     0.6583761339
C     -2.0180726367     -3.3874735041     1.0608051661
C     -2.1951109941     -3.2306135457     -0.3382928775
C     -0.7779606854     -4.1900032267     1.3198087443
C     -0.4357984825     -3.6170430408     -1.9939064778
C     0.9921241001     -3.684068902     -1.6187513503
C     1.1024284785     -4.1043714021     -0.2642728082
C     -1.1852287778     -4.0825566286     -0.9531107797
C     -0.2376973131     -4.5403041729     0.1084758643


