60

 C     -2.957760796     -3.2722388664     -0.0500812596
C     -1.7411644911     -3.8193053067     0.333663127
C     -1.2671225135     -3.1542700967     1.5727982052
C     -3.2592775912     -2.228537267     0.8773802463
C     -2.2095723725     -2.125590501     1.8818644642
C     -3.6053822023     -1.0592744447     0.1577758954
C     -2.7130882336     -2.5836090198     -1.3322337818
C     -3.1368504813     -1.2399803837     -1.2342005064
C     -0.8385452529     -3.7975003057     -0.7925946899
C     -1.3979151175     -2.8628297943     -1.7855206131
C     0.4942995036     -3.8071734637     -0.5248272246
C     0.1125614776     -2.9844216454     1.7969744571
C     0.9837069529     -3.6655303629     0.8524439608
C     0.5806882848     -1.7134013006     2.4086294946
C     -1.7698033402     -0.8353956576     2.3398977438
C     -0.3508308427     -0.5974822908     2.593954511
C     -3.4017850845     0.1524214508     0.7691421793
C     -2.5724576641     0.2741422909     1.9407142435
C     -3.2042809152     1.3271482328     -0.0361008661
C     -2.4031103374     -0.1892779224     -1.8543357831
C     -2.6709502971     1.1674085172     -1.3637615715
C     -0.5712439274     -1.8349299168     -2.3453014347
C     -1.117122156     -0.4908420848     -2.4673058391
C     1.4157948892     -3.1014329499     -1.4068448549
C     0.8920635715     -2.0277163482     -2.2515627197
C     2.3114183465     -3.2541668672     0.7159261361
C     2.6198471044     -2.9495976699     -0.710472689
C     1.9721586057     -1.4146697568     2.2806263646
C     2.8340020927     -2.2250882893     1.4807083786
C     2.4151366924     -0.0591831896     2.1066009192
C     0.14955482     0.7915637422     2.5905492766
C     1.572103195     1.0217407297     2.3197890953
C     -2.0790956416     1.617101165     1.945005724
C     -2.6682169017     2.3329112987     0.8194008616
C     -0.7543124909     1.9129150297     2.3563167238
C     -2.0312230829     3.4540640296     0.2723040911
C     -1.8915792534     2.2515796301     -1.8645488268
C     -1.7620309725     3.4527569934     -1.1434473118
C     -0.1932576213     0.6291277866     -2.7091244934
C     -0.6021534735     1.9668175276     -2.4864472645
C     1.7520000044     -0.926746228     -2.4354900786
C     1.2116746996     0.3965633581     -2.6688077747
C     3.3663538868     -1.7409827646     -0.7538064266
C     3.6303829647     -1.3383629184     0.6183667315
C     3.4150378283     -0.0334468082     1.0093472443
C     2.9808377285     -0.7646051819     -1.6865626239
C     2.105659013     1.3713055867     -2.1066060814
C     3.328529013     1.0212964642     0.0199331425
C     3.0777777559     0.6280483292     -1.3441624331
C     2.0042685863     2.2707285199     1.709989611
C     2.7719096752     2.2241095906     0.4458564403
C     -0.2335615869     3.217583118     1.9168882521
C     -0.9208876552     4.0044398046     0.9559864657
C     1.1732735881     3.3621940708     1.6574587692
C     -0.4140105695     3.9641581844     -1.3378134167
C     0.3299398519     3.0287428162     -2.1160643221
C     1.6676113617     2.670626679     -1.7235840401
C     2.1637829331     3.1750771062     -0.4623948842
C     0.0728997592     4.4018992296     -0.0869661874
C     1.33331878     4.0091184213     0.3346773432


