60

 C     1.0797795792     -4.5416563358     0.8791613741
C     -0.2951494255     -4.3960641146     1.3441640888
C     -1.1284436524     -4.5320159234     0.2150886784
C     1.0518966828     -4.3968736338     -0.5867965379
C     -0.2556701596     -4.4283089819     -1.0238737011
C     1.8841537483     -3.2792732414     -0.973628488
C     1.8129894765     -3.4736488351     1.3546969908
C     2.4600381548     -2.7813153666     0.2464553482
C     -0.3928565497     -3.1849028031     2.1233003423
C     0.9566355367     -2.631578981     2.195508569
C     -1.476222005     -2.256070061     1.9441384897
C     -2.1876096773     -3.6686544191     0.0303087338
C     -2.445712292     -2.579016281     0.9120379345
C     -0.8022114399     -3.3838228773     -1.8594723275
C     -2.0854102406     -3.0872932334     -1.3315005159
C     1.4292182037     -2.3154267186     -1.9389041923
C     0.0220692244     -2.2783628883     -2.3395710748
C     2.1319854985     -1.0885300875     -1.9303990924
C     2.8253476481     -1.4391192432     0.3988901992
C     2.9609448237     -0.7032340905     -0.8033663744
C     1.1980231109     -1.2625943294     2.3011846811
C     2.361966696     -0.697192643     1.5833385655
C     -1.2508750348     -0.8504870491     2.2570296815
C     0.0777763235     -0.3679891212     2.5663394147
C     -2.2077069849     0.1461293136     1.7594273218
C     -2.9122510691     -1.4979231606     0.0807759894
C     -2.5778182411     -1.7946567638     -1.3076972499
C     -2.9297390632     -0.1823872116     0.5241505819
C     -0.5945838982     -0.9754011192     -2.5711105814
C     -1.95330974     -0.7646936962     -2.0842398793
C     1.608017532     0.1143659444     -2.4923426401
C     0.2228333495     0.2380862141     -2.7526405799
C     3.1038601125     0.7091588213     -0.7915546204
C     2.3678483301     1.2321618546     -1.92669769
C     2.5335559086     0.6776435163     1.5790867242
C     3.0450550432     1.3964381104     0.4242253962
C     0.339075932     1.0579353286     2.6683604715
C     1.6058511976     1.5727770581     2.2578116583
C     -2.0171355802     1.4998321876     2.0268280939
C     -0.7641915127     1.976267144     2.6168659284
C     -2.4875285229     2.5421681725     1.1246051289
C     -3.0080386013     0.8123308931     -0.4929509446
C     -2.3936159609     0.5319845615     -1.7755227678
C     -2.8304512727     2.1889823705     -0.1930279642
C     -0.3611132075     1.5936697898     -2.6421716823
C     -1.6971775389     1.7192391237     -2.1760310834
C     -2.1206634338     2.810880869     -1.3112829647
C     1.8625381304     2.4998008542     -1.8874415589
C     0.4944464532     2.734312277     -2.3639965133
C     2.5402012691     2.7434336757     0.469574461
C     1.7392408295     2.892347713     1.6954729575
C     2.0967686306     3.3513786756     -0.7177911393
C     -0.5780350286     3.3236474158     2.2706242012
C     -1.655785232     3.6943805794     1.3332915761
C     0.6603509692     3.7974429996     1.7325057024
C     -1.2879318314     3.9095800993     -1.0937961711
C     0.0092232639     3.8701018851     -1.6929129851
C     0.9921987527     4.2598958708     -0.656179493
C     -1.1118693395     4.395462659     0.2730426813
C     0.3352163248     4.5466572329     0.5286084476


