60

 C     -1.9916294301     -3.8668818086     -0.155515361
C     -0.6228916416     -4.0666458003     -0.5456073178
C     0.2125383737     -3.8048307368     0.5523633862
C     -1.9926245096     -3.311064649     1.1775687724
C     -0.6648734707     -3.216337521     1.6117186292
C     -2.7351039502     -2.0663715947     1.1505120601
C     -2.4895708675     -2.8523372158     -0.9845696524
C     -3.1142369988     -1.8158552964     -0.210074159
C     -0.3615652524     -3.3402550501     -1.7799053531
C     -1.5283280521     -2.4884366692     -2.024317157
C     0.8956118383     -2.819709578     -1.9845169769
C     1.5339015574     -3.3068250195     0.3548307305
C     1.9370118003     -2.9417918558     -0.9714159674
C     2.0941325     -2.5579502549     1.4399063618
C     -0.1959121296     -2.0723127065     2.3790876348
C     1.185696955     -1.8791797202     2.4074934004
C     -2.4023640502     -0.9615637666     1.9859651414
C     -1.08833727     -0.9083831354     2.6142017635
C     -3.0492154494     0.2458723862     1.6129808779
C     -3.1931577882     -0.5011946298     -0.7262257906
C     -3.4694076353     0.4940057036     0.2317516233
C     -1.3965974998     -1.150025764     -2.4279403235
C     -2.391363955     -0.1573846488     -1.9286688817
C     1.0451039825     -1.531218485     -2.6281639468
C     -0.0597130834     -0.6741740128     -2.8483727958
C     2.8674224292     -1.8616127813     -1.1837338243
C     2.3382698869     -1.0091221178     -2.2404366241
C     3.161049322     -1.6975858367     1.2146555328
C     3.5372608698     -1.2684963309     -0.1034033234
C     1.767299884     -0.5865942992     2.7227598833
C     3.0084157201     -0.5096727835     2.0466708609
C     -0.5072729203     0.3919044839     2.8963213776
C     0.9455357819     0.5667676455     2.8601005724
C     -2.5917275065     1.4714526346     2.1291631202
C     -1.3075450565     1.5694587536     2.6732783277
C     -3.2489096379     1.8885356214     -0.0566047015
C     -2.7784049552     2.5243430681     1.123877286
C     -2.1691321873     1.1918337893     -2.1800039607
C     -2.6760584172     2.2461571056     -1.2993913727
C     0.2046039899     0.758206467     -2.9430334603
C     -0.8861839628     1.6639942634     -2.7523578878
C     2.5605843021     0.3575260547     -2.2244705339
C     1.513867942     1.2552546083     -2.6501563951
C     3.7091300999     0.1804646593     -0.055354881
C     3.3814196008     0.6237817627     1.3054874354
C     3.2785157071     0.9694589957     -1.1175483176
C     1.492823197     1.8018580402     2.3587996655
C     2.6437354606     1.8045853734     1.5086072559
C     -0.7257006685     2.8184854063     2.1286906797
C     -1.644069256     3.3568382293     1.1198448633
C     0.6262340626     2.8840513129     1.9171105104
C     -1.7253469527     3.2929787072     -1.3114460701
C     -0.659896229     2.9532504736     -2.2591354523
C     -1.1292291653     3.8044532181     -0.129870615
C     1.6878399898     2.5026057428     -1.9347177357
C     2.6801320475     2.2780093223     -0.896280782
C     2.3985504601     2.719468774     0.3996541854
C     1.1766909974     3.4457913715     0.6763604868
C     0.592687197     3.330956582     -1.6987850821
C     0.3203035942     3.8314633122     -0.347737522


