60

 C     0.8035821048     3.6405227732     -1.504878478
C     1.9297003258     3.4553338262     -0.7312054065
C     1.5584571575     3.6821383126     0.6859101458
C     -0.3064176845     4.009324379     -0.6132282935
C     0.1421703555     3.8811638179     0.7485593856
C     -1.4554527148     3.3584137652     -1.0613241775
C     0.3662192244     2.6170511504     -2.3989255079
C     -1.0909817903     2.5525376339     -2.242326354
C     1.1230617136     1.4267768004     -2.5704929844
C     2.705811983     2.2748121864     -0.837880668
C     2.3643189407     1.2570323913     -1.7839587131
C     2.1967692334     2.7030329705     1.4459030731
C     3.0349827817     1.8939064854     0.5343355601
C     1.4762254387     2.0289902833     2.4622398342
C     -0.6442597475     3.0915918946     1.6755784429
C     0.0655133556     2.2110710677     2.5647520709
C     -2.3525561641     2.8010052483     -0.1179826268
C     -1.9418252414     2.6489458611     1.2450610294
C     -3.150552019     1.6450866116     -0.471570112
C     -1.7730449183     1.3895331427     -2.4972796582
C     -2.8761108284     0.9642635601     -1.6529028492
C     0.3777113209     0.2174438033     -2.9740620611
C     -1.0554488849     0.2082914562     -2.9300293994
C     0.9855868364     -1.0439517375     -2.8908550695
C     2.855391361     -0.092284188     -1.5102188694
C     2.2975675536     -1.2029487003     -2.2414424635
C     3.3033273156     0.586158096     0.8330186078
C     3.372799986     -0.3998860834     -0.2160262338
C     1.7569765555     0.6327012861     2.7451032675
C     2.6894569789     -0.0571700267     1.9945206206
C     -0.5162378362     0.9382030827     3.0046836084
C     0.520104687     -0.0328960195     3.1018448052
C     -2.5604060717     1.4249948162     1.7636841911
C     -3.3849073613     0.8671474572     0.7314284584
C     -1.839439741     0.5578672998     2.6446347361
C     -3.5884018435     -0.519998466     0.6453418999
C     -2.9110848058     -0.4953401927     -1.7064744896
C     -1.7863227716     -0.9503276958     -2.5131597741
C     -3.3335885499     -1.2292518336     -0.6189276813
C     0.2277414052     -2.2522415877     -2.6752219356
C     -1.1409899561     -2.1981958846     -2.2684716026
C     2.3981661991     -2.5137293788     -1.7750740306
C     1.1233502743     -3.1870826564     -2.0585799947
C     3.1308543279     -1.6945051423     0.3917404564
C     2.5269792841     -1.4655731035     1.6898135416
C     2.7244159208     -2.7752727673     -0.3951907932
C     0.3083072931     -1.4280876363     2.8073405946
C     1.3717161173     -2.1819552335     2.1108294987
C     -2.1100687567     -0.8538941256     2.5897451628
C     -3.0786801759     -1.3397723248     1.6697461844
C     -1.0381656431     -1.832270422     2.6620017831
C     -2.6696172307     -2.5023115469     -0.3153991408
C     -1.5888707696     -3.0093268572     -1.1146819118
C     -2.5940164746     -2.5790578251     1.0926786675
C     -1.3867393311     -2.9302721312     1.7528485744
C     0.7270156439     -3.8881119332     -0.9413216137
C     1.719168336     -3.6390720151     0.1306282382
C     1.0016399921     -3.3169130346     1.2902004355
C     -0.5920179203     -3.7659960827     -0.4083795049
C     -0.4188848713     -3.5876445273     1.0232993249


