60

 C     2.6387879357     -3.3805779753     -0.5898165123
C     2.5338152214     -3.1229610506     0.8567945973
C     1.2171731795     -3.4202672682     1.2798373063
C     1.4032438635     -3.7621496004     -1.0731996669
C     0.5467037709     -3.9702294833     0.0828406749
C     0.9647786007     -2.7640728142     -2.0764799278
C     3.0197667298     -2.1381327447     -1.1978105269
C     1.9991933323     -1.7549196327     -2.1416197368
C     3.1032221348     -1.8453157144     1.1116057814
C     3.4276200593     -1.2214177275     -0.195909765
C     2.4889908453     -1.0371056196     2.0584342745
C     0.4800525609     -2.4991764508     2.1310783559
C     1.1985123472     -1.3719105543     2.5966934804
C     -0.9876125169     -2.3898008595     2.010075076
C     -0.7783001294     -3.7549386969     -0.0704232126
C     -1.5980551391     -3.2166806334     1.0133766747
C     -0.3793409972     -2.3945548166     -2.169131313
C     -1.3022995291     -3.1794620163     -1.3394075618
C     -0.7485375584     -1.0065821437     -2.5025835965
C     1.6804162038     -0.3983581342     -2.3095412584
C     0.3063570907     -0.0142385396     -2.634084911
C     3.2498329942     0.1514023397     -0.4072786038
C     2.5560944093     0.5689318191     -1.6248866701
C     2.5646101806     0.4017506162     1.933968412
C     3.1076093905     1.0264366379     0.771685994
C     0.5351990226     -0.1111317376     2.8912592715
C     1.432864834     0.9771380794     2.5935099515
C     -1.6704595972     -1.1276115598     2.3649948835
C     -0.8633602589     0.0355026297     2.7721900727
C     -2.9497128827     -0.8444650975     1.7792336452
C     -2.8119764217     -2.8426309221     0.3999738822
C     -2.56047381     -2.7179905844     -1.0685805015
C     -3.482482672     -1.714547716     0.7860854473
C     -2.120443679     -0.5583114223     -2.2196400511
C     -3.0273436819     -1.4318842671     -1.5016138839
C     -3.7927853931     -0.9075189605     -0.4214708968
C     -2.3585048223     0.8348832371     -2.0583816316
C     -0.0160999131     1.4154309642     -2.6355212965
C     -1.3466866029     1.8197978848     -2.341643441
C     2.2820328413     1.9297307421     -1.7776740281
C     1.018294669     2.3761148101     -2.371722461
C     2.7986065317     2.3814913883     0.5693421813
C     2.692788538     2.8886678535     -0.7865131382
C     0.9758612422     2.2879666479     2.251295556
C     1.7805740667     3.0545021591     1.3545932867
C     -1.3216260255     1.3786081175     2.4952031383
C     -0.4401756395     2.4827599612     2.2547701588
C     -3.2811977344     0.5058273902     1.3347704186
C     -3.7364920901     0.4378696984     -0.0630386418
C     -3.1890518881     1.344510204     -0.9857577033
C     -2.5302723092     1.5897328361     1.7258355905
C     -1.5885477852     2.9734162551     -1.4997940522
C     -1.0571771937     3.3384192128     1.2429126659
C     -2.5945540217     2.5679168572     -0.5280553532
C     -2.3001369135     2.7112397294     0.8339613308
C     0.7218029563     3.6188054163     -1.7507986638
C     1.7801309302     3.9580360211     -0.8111054826
C     1.1559352946     4.007803293     0.4672902235
C     -0.5497770466     3.8104845664     -1.1255739078
C     -0.2773873244     4.0237673755     0.3154460658


