60

 C     0.2356874237     4.6726973925     0.0585842145
C     -1.0746873031     4.2552326493     0.5248731442
C     -0.9352063839     3.6408635478     1.7735855756
C     1.2151438595     4.0896615568     0.9722241518
C     0.5342729723     3.5165596911     2.0368842395
C     2.1012652711     3.1980681508     0.2468102586
C     0.4222563193     3.9742685044     -1.1403768032
C     1.6266060375     3.1715146771     -1.1132417289
C     -1.7369939659     3.4766151156     -0.4998592873
C     -0.782388246     3.3076208253     -1.5844467467
C     -2.5674823014     2.3797673148     -0.1524991127
C     -1.5248514901     2.3902920265     2.0666261138
C     -2.4699652575     1.7748643366     1.1808418858
C     0.789745021     2.1865650894     2.4917177165
C     -0.5009839378     1.5450735948     2.6504731584
C     2.5767162621     1.9778010727     0.8405835841
C     1.8797192952     1.4152678146     2.0067664303
C     3.1386167636     1.0734248842     -0.0715003265
C     1.7527102861     2.000564787     -1.9063895862
C     2.8046405189     1.1462208447     -1.4732959297
C     -0.7016769703     2.091021171     -2.3250873405
C     0.5938224266     1.4050159649     -2.5628839001
C     -2.8348872755     1.4941693398     -1.2342602377
C     -1.8676874228     1.302339616     -2.2980732295
C     -3.4131322038     0.243629206     -0.9830991105
C     -2.7132718945     0.3541767325     1.3562705728
C     -3.3604202128     -0.3606068037     0.2812574685
C     -0.6190518634     0.1560568894     2.7185287603
C     -1.8631603687     -0.4316782086     2.2377856926
C     1.8345804535     -0.0263188412     2.2052026788
C     0.6232640113     -0.614506167     2.7641400475
C     3.3571064333     -0.3278787646     0.2705369846
C     2.713649602     -0.8927756066     1.4210736645
C     2.8859735402     -0.1626437381     -1.9679170439
C     3.394747929     -1.0611682314     -0.9339221101
C     0.6012284826     -0.0192191044     -2.8665329891
C     1.8094844978     -0.7698026505     -2.6233014891
C     -1.8756376683     -0.1002938183     -2.6810449001
C     -2.9281361488     -0.7234060737     -1.9757224397
C     -0.6482393063     -0.7974448585     -2.8894246199
C     -3.1362875294     -1.7964047993     0.0508208419
C     -2.7953108212     -1.9763436699     -1.3712032765
C     -1.9008810115     -1.859484299     2.1521866659
C     -2.4834053827     -2.5435408316     0.984788105
C     0.4954889659     -2.0291333419     2.8007591072
C     -0.7987971275     -2.6116327222     2.5530271904
C     2.4460615633     -2.3081405459     1.3517780467
C     1.4482585604     -2.8704778361     2.1699285685
C     2.7582621145     -2.3113379651     -1.0775046428
C     1.7892459934     -2.1764132412     -2.1755437797
C     2.420179833     -3.0254339109     0.0675074902
C     -0.6342652913     -2.1840500692     -2.5041916524
C     -1.6814737645     -2.7632276557     -1.7152529617
C     0.6007085653     -2.8561311752     -2.1001934346
C     -1.5712562854     -3.6378918444     0.5976018169
C     -0.6273768887     -3.7654150133     1.6518879729
C     0.7343460082     -3.9016416479     1.4069920667
C     1.2433863643     -3.8783489096     0.0676385633
C     -1.0991475746     -3.6789299879     -0.7344280319
C     0.3188864229     -3.7776307631     -0.9984859673


