60

 C     1.8797170753     -3.906320415     -0.4526801441
C     0.6266240106     -4.0731216382     -1.0124807977
C     -0.3327483023     -4.1666312499     0.0848249838
C     1.6816837114     -3.615281473     1.01821632
C     0.3197793598     -3.6594003334     1.2989949345
C     2.4706323001     -2.4875701689     1.3521950924
C     2.7311149741     -2.9357865848     -0.9481880715
C     3.2803357705     -2.200508367     0.194942246
C     2.2753118532     -1.9495353262     -1.8881274553
C     0.104508075     -3.1061978624     -1.9437293792
C     0.8977472501     -1.9618826952     -2.323839498
C     -1.5283858317     -3.6352956263     -0.3276707385
C     -1.2818955919     -2.9135721087     -1.6048268733
C     -2.3397751355     -3.0135943345     0.6446690866
C     -0.3130967021     -2.5567452649     2.0388374695
C     -1.693416498     -2.4044409409     1.8392414546
C     1.899967631     -1.379550157     2.1034975987
C     0.4715552546     -1.3716453273     2.4204479085
C     2.5579480148     -0.1385187302     1.927729881
C     3.5224775501     -0.8897158694     -0.1981429628
C     2.896285973     -0.6952069684     -1.5069691968
C     3.371721083     0.1062053789     0.7658225613
C     2.3335469025     0.5410552394     -1.8203558402
C     0.2260122992     -0.6768788838     -2.5445747497
C     1.0259212374     0.5439231333     -2.4912648929
C     -1.9766963877     -1.7232654672     -1.8859970295
C     -1.2283009574     -0.5730321749     -2.4069652685
C     -3.3326755969     -2.174920414     0.2012180019
C     -3.1893788705     -1.5023273055     -1.0963341479
C     -2.374663441     -1.1628893292     2.0957737582
C     -3.4981369867     -1.1136705841     1.1829250057
C     -0.2111425381     -0.0824976597     2.6181301124
C     -1.6558336789     0.0189134998     2.3960266619
C     1.9417574507     1.1191286476     2.2669071519
C     0.5632569827     1.1598269586     2.6240807474
C     3.1554969421     1.4489405187     0.348312042
C     2.7179677305     1.707558976     -0.9852871696
C     2.5331775784     2.1580371916     1.4568457201
C     2.065337254     2.9645106535     -1.2164129881
C     0.3843903404     1.8083791946     -2.6047483322
C     0.9838353385     3.0184880001     -2.1680813904
C     -1.828500665     0.7509211076     -2.270868315
C     -1.0419453055     1.9066958725     -2.4029785268
C     -3.6902504104     -0.2040960606     -0.9332001239
C     -3.8558284022     0.0380672478     0.5227252543
C     -2.9973829098     0.906045644     -1.4353595648
C     -2.2289978299     1.2996430315     1.8889590028
C     -3.2325932737     1.2532167612     0.8417076121
C     -2.9577161473     1.9401715086     -0.3996168777
C     -0.0887357165     2.4329270313     2.3966707698
C     -1.4490976075     2.4483916674     1.8748802173
C     1.8560831971     3.3460668715     1.2064399309
C     1.791162875     3.8589443129     -0.1407009834
C     0.5830935451     3.5260218573     1.82448203
C     -0.0522273168     3.8401563948     -1.599121201
C     -1.2831637982     3.1410460009     -1.6501717321
C     -2.0871310875     3.0336395603     -0.463458641
C     -1.524479104     3.4532810636     0.8069436039
C     0.4330848484     4.3445686488     -0.35226875
C     -0.3073388155     4.1593275464     0.8319743825


