60

 C     -2.0267923718     -1.8175246506     -2.6212618829
C     -0.8490266166     -2.5536388154     -2.4576118734
C     0.2344034971     -1.7971312576     -3.1438381662
C     -1.7194163857     -0.5944671053     -3.3473687585
C     -0.3549537266     -0.6100359004     -3.7379270564
C     -2.2747067524     0.4977503574     -2.6617999491
C     -2.8466530889     -1.4792307878     -1.5076168366
C     -3.0035383905     -0.0366380352     -1.4991643545
C     -2.6652748055     -2.1522280318     -0.307858439
C     -0.6156281281     -3.2562352681     -1.228881312
C     -1.5985400424     -3.1313895269     -0.1853816885
C     0.757184191     -3.4055815702     -0.8142460378
C     1.5247558928     -1.7313418304     -2.5588908505
C     1.7940064835     -2.5387188726     -1.4114429979
C     2.2747067524     -0.4977503574     -2.6617999491
C     0.3549537266     0.6100359004     -3.7379270564
C     1.7194163857     0.5944671053     -3.3473687585
C     -1.5247558928     1.7313418304     -2.5588908505
C     -0.2344034971     1.7971312576     -3.1438381662
C     -1.7940064835     2.5387188726     -1.4114429979
C     -3.0564187885     0.6807199565     -0.289699579
C     -2.6154202283     2.0521088522     -0.3591322081
C     -2.7946477962     -1.4498717828     0.9496791655
C     -2.9455223465     -0.0352906895     1.0055786295
C     -1.2256003529     -3.1885177085     1.2135217415
C     -1.9911195801     -2.1641032105     1.9181367054
C     1.0731832672     -3.5906277437     0.5320922327
C     0.1086900677     -3.4131053935     1.5643552544
C     2.6154202283     -2.0521088522     -0.3591322081
C     2.2091395698     -2.7257987363     0.8410006749
C     3.0035383905     0.0366380352     -1.4991643545
C     3.0564187885     -0.6807199565     -0.289699579
C     2.0267923718     1.8175246506     -2.6212618829
C     0.8490266166     2.5536388154     -2.4576118734
C     2.8466530889     1.4792307878     -1.5076168366
C     -0.757184191     3.4055815702     -0.8142460378
C     0.6156281281     3.2562352681     -1.228881312
C     -2.2091395698     2.7257987363     0.8410006749
C     -1.0731832672     3.5906277437     0.5320922327
C     -2.4010633202     0.6594809976     2.1788784173
C     -2.0076967344     2.0574203754     2.0357738193
C     -1.4525023177     -1.4973474976     3.0040436194
C     -1.7008566161     -0.0842733898     3.1644695805
C     0.7278816262     -2.5696216531     2.5903174374
C     2.0076967344     -2.0574203754     2.0357738193
C     -0.0463256094     -1.7407539339     3.361599234
C     2.9455223465     0.0352906895     1.0055786295
C     2.4010633202     -0.6594809976     2.1788784173
C     2.6652748055     2.1522280318     -0.307858439
C     1.5985400424     3.1313895269     -0.1853816885
C     2.7946477962     1.4498717828     0.9496791655
C     -0.1086900677     3.4131053935     1.5643552544
C     -0.7278816262     2.5696216531     2.5903174374
C     1.2256003529     3.1885177085     1.2135217415
C     1.9911195801     2.1641032105     1.9181367054
C     -0.5076887706     0.4818670401     3.7726752787
C     0.5076887706     -0.4818670401     3.7726752787
C     1.7008566161     0.0842733898     3.1644695805
C     0.0463256094     1.7407539339     3.361599234
C     1.4525023177     1.4973474976     3.0040436194


