60

 C     0.9041335417     1.5894056263     -3.3721476402
C     2.1020625887     1.1491978566     -2.806019907
C     2.4054120896     2.0546255663     -1.6695803305
C     0.3367759424     2.6171724156     -2.5032167662
C     1.2253983948     2.8459090972     -1.4067867506
C     -1.0146251513     2.3547005516     -2.3155859593
C     -0.1372923527     0.6906111846     -3.7417019771
C     -1.3640209446     1.1682498894     -3.1230229858
C     0.1372923527     -0.6906111846     -3.7417019771
C     2.3594340039     -0.2752542936     -2.6682454879
C     1.3640209446     -1.1682498894     -3.1230229858
C     3.1508066156     -0.6987244714     -1.5387289858
C     3.1705084852     1.5909654461     -0.6254681949
C     3.7221506107     0.2531945584     -0.6667578869
C     2.7802882186     1.8722067521     0.7398358192
C     0.7282999984     3.0329892443     -0.0869902381
C     1.6017595568     2.5966931958     1.024000342
C     -1.6017595568     2.5966931958     -1.024000342
C     -0.7282999984     3.0329892443     0.0869902381
C     -2.7802882186     1.8722067521     -0.7398358192
C     -2.3594340039     0.2752542936     -2.6682454879
C     -3.1508066156     0.6987244714     -1.5387289858
C     -0.9041335417     -1.5894056263     -3.3721476402
C     -2.1020625887     -1.1491978566     -2.806019907
C     1.0146251513     -2.3547005516     -2.3155859593
C     -0.3367759424     -2.6171724156     -2.5032167662
C     2.7802882186     -1.8722067521     -0.7398358192
C     1.6017595568     -2.5966931958     -1.024000342
C     3.7221506107     -0.2531945584     0.6667578869
C     3.1508066156     0.6987244714     1.5387289858
C     3.1705084852     -1.5909654461     0.6254681949
C     2.3594340039     0.2752542936     2.6682454879
C     1.0146251513     2.3547005516     2.3155859593
C     1.3640209446     1.1682498894     3.1230229858
C     -1.2253983948     2.8459090972     1.4067867506
C     -0.3367759424     2.6171724156     2.5032167662
C     -3.1705084852     1.5909654461     0.6254681949
C     -2.4054120896     2.0546255663     1.6695803305
C     -3.7221506107     -0.2531945584     -0.6667578869
C     -3.7221506107     0.2531945584     0.6667578869
C     -2.4054120896     -2.0546255663     -1.6695803305
C     -1.2253983948     -2.8459090972     -1.4067867506
C     -3.1705084852     -1.5909654461     -0.6254681949
C     0.7282999984     -3.0329892443     0.0869902381
C     -0.7282999984     -3.0329892443     -0.0869902381
C     2.4054120896     -2.0546255663     1.6695803305
C     2.1020625887     -1.1491978566     2.806019907
C     1.2253983948     -2.8459090972     1.4067867506
C     0.9041335417     -1.5894056263     3.3721476402
C     0.3367759424     -2.6171724156     2.5032167662
C     0.1372923527     0.6906111846     3.7417019771
C     -0.9041335417     1.5894056263     3.3721476402
C     -2.1020625887     1.1491978566     2.806019907
C     -0.1372923527     -0.6906111846     3.7417019771
C     -3.1508066156     -0.6987244714     1.5387289858
C     -2.7802882186     -1.8722067521     0.7398358192
C     -1.6017595568     -2.5966931958     1.024000342
C     -1.0146251513     -2.3547005516     2.3155859593
C     -2.3594340039     -0.2752542936     2.6682454879
C     -1.3640209446     -1.1682498894     3.1230229858


