60

 C     -1.1994507841     -4.4408710976     0.1484984878
C     -2.3413036481     -3.5974486949     -0.1993944517
C     -2.1392494536     -3.1281114143     -1.4832720041
C     -0.1837628986     -4.2907118601     -0.9096650044
C     -0.7679225229     -3.5296339137     -1.9222160733
C     1.045665066     -3.8179907322     -0.3382720904
C     -0.6453010437     -3.8944074904     1.2908842805
C     0.7809353174     -3.6879200807     1.1054409653
C     -2.5257770329     -2.5912655001     0.8411881989
C     -1.4628169111     -2.7652103191     1.7846054741
C     -2.9321685236     -1.2744471654     0.5185063723
C     -2.3277472146     -1.7544355798     -1.8035817176
C     -2.9348141276     -0.8588676311     -0.8788726866
C     -0.142268688     -2.3646729495     -2.4228392621
C     -1.1447678767     -1.2988365586     -2.4803335502
C     1.8000107556     -2.7828930646     -0.9574155281
C     1.1801738837     -2.014356797     -2.0476207362
C     2.7713723068     -2.0724388132     -0.123086312
C     1.3823862257     -2.6835503251     1.8145957586
C     2.5410011695     -2.0311651881     1.2903238265
C     -0.8387330304     -1.6398435394     2.4011752865
C     0.5895063828     -1.6780126951     2.5545383634
C     -2.6505732018     -0.232818332     1.4891507845
C     -1.4759484439     -0.352416551     2.3384591514
C     -3.1419751986     1.0405622167     1.166750707
C     -2.8743513397     0.5424980778     -1.2085899003
C     -3.369000109     1.4299788742     -0.2087804551
C     -0.8063515505     0.0715133378     -2.5323479361
C     -1.8412105027     1.0176806147     -2.1187302973
C     1.5965417048     -0.6390908682     -2.3092357993
C     0.5964235406     0.4146752681     -2.5743731118
C     3.465444005     -0.9786373855     -0.6894887909
C     2.8786244344     -0.2603554974     -1.8428883855
C     4.0103675705     0.0375332177     0.1456823495
C     2.6506706232     -0.7653745648     1.9681887868
C     1.3578183481     -0.4982733952     2.6009453392
C     3.3917992242     0.2569078753     1.4327401267
C     -0.6869917672     0.8604116874     2.5764059089
C     0.7592259243     0.8013157848     2.5405208389
C     -2.6317891043     2.2155457973     1.8249828096
C     -1.2831056576     2.1245132369     2.3346902037
C     -3.1471262662     2.8522667493     -0.2772216728
C     -2.8114594205     3.3724205813     1.0403374455
C     -1.4884981808     2.3963436228     -2.0356928487
C     -2.194747739     3.3033099649     -1.2011292025
C     0.9470591124     1.8018983864     -2.3069447815
C     -0.0808636281     2.7266666573     -1.9751640343
C     3.2613655112     1.114388526     -1.7386258354
C     4.0130259708     1.2838015809     -0.5503313601
C     2.2321514532     2.1205718514     -1.7939038419
C     2.8385155487     1.6244299276     1.4436569006
C     1.5259675654     1.9009028892     1.9414440343
C     3.285062881     2.2422399601     0.2369375633
C     2.3184599856     2.9077753135     -0.5800816041
C     -0.5447657412     3.2208755642     1.7525282742
C     -1.4962713165     3.9612255236     0.9161615464
C     -1.1762845563     4.0733377935     -0.4460693385
C     0.0965863331     3.7062463756     -0.9115221583
C     0.8021875452     3.0393868457     1.3629901697
C     1.1690490907     3.4628336022     0.0053606168


