60

 C     -0.4362428365     4.5365386338     -0.2701083977
C     -1.7456406341     4.1099724997     -0.2380565541
C     -1.992388745     3.2388681075     -1.4375394858
C     0.1455873284     4.0520063905     -1.5371592822
C     -0.7598639596     3.0631474386     -2.1105064065
C     1.4401452355     3.7018544949     -1.2810614878
C     0.4793907697     4.1988914005     0.8124777097
C     1.7110847479     3.8864396245     0.1695385813
C     0.0244872284     3.3201205908     1.886240997
C     -2.2470177721     3.4223928224     0.8821517889
C     -1.373525393     2.95777114     1.9201544407
C     -2.7332126711     2.1301883869     -1.0127235177
C     -3.0262967766     2.2952255106     0.3996286907
C     -2.41000851     0.8337163449     -1.5019279989
C     -0.2856478357     1.7334933778     -2.4499199554
C     -1.2018123747     0.6247536144     -2.2941036855
C     1.9741607399     2.4400843152     -1.6765039025
C     1.1598596327     1.4431836345     -2.312341676
C     2.5553755208     2.8519020837     0.5822617082
C     2.8925973705     2.0558947784     -0.6147674677
C     0.940462799     2.309220764     2.3458625062
C     2.2377162493     2.1323126525     1.7566367453
C     0.4969906221     0.979854735     2.7575097224
C     -1.7672773462     1.5846077025     2.202445531
C     -2.8096224719     1.2176419442     1.2493495975
C     -0.8633934248     0.5771508426     2.6091048144
C     -2.8670538448     -0.265648708     -0.6980997511
C     -2.8892644693     -0.0996519908     0.7553193164
C     -2.683297801     -1.5545444946     -1.2194631817
C     -0.7384061132     -0.7603267651     -2.4999396939
C     -1.618685078     -1.8186757082     -2.1940993291
C     1.6213035757     0.0658707042     -2.2484505857
C     0.6999256945     -1.051382666     -2.5276419201
C     3.2458011199     0.7501222306     -0.4902005051
C     2.7673227286     -0.2147023055     -1.4481693646
C     2.6082516953     0.7345354889     1.8705233226
C     1.5406732007     0.0261996277     2.5432697601
C     3.2420616514     0.0886264854     0.8164535898
C     1.280126171     -1.3519716413     2.3178652891
C     -1.1651516917     -0.8401750631     2.3610714956
C     -2.3369880451     -1.1614740934     1.5468493128
C     -0.1011079789     -1.8213140073     2.4161802997
C     -2.8018980796     -2.6574040236     -0.3822443333
C     -2.5083675628     -2.4790271943     1.0335319461
C     -1.1892720191     -3.1949729271     -1.9851302995
C     -1.9832866446     -3.7377906147     -0.9001445654
C     1.11732554     -2.3803291781     -2.2712507061
C     0.1893186243     -3.4798474607     -2.0174549031
C     2.913082883     -1.4955528515     -0.8394304865
C     3.041113996     -1.3065187458     0.6006336355
C     2.2042788885     -2.0883649752     1.4435995456
C     2.2529573263     -2.5923984411     -1.3682998272
C     0.7548692476     -4.3147110685     -0.9727664506
C     1.8194914171     -3.3749982779     0.9254207097
C     1.9482977271     -3.6516367754     -0.5011433149
C     -0.3805594178     -3.1818102713     1.9905205239
C     -1.6343160055     -3.5081526411     1.3974332981
C     -1.3730428125     -4.3626573913     0.1978069332
C     0.624216367     -3.9754553284     1.3431109229
C     -0.005627283     -4.6410927574     0.1676965013


