60

 C     -2.1797537935     -3.6259434904     1.0392988184
C     -0.8642958165     -3.7198411436     1.5089917023
C     -0.5551182632     -2.5564254497     2.3331425029
C     -2.7277255492     -2.3931033013     1.5130108704
C     -1.7527632084     -1.7271591021     2.3492242252
C     -3.1731527669     -1.645582341     0.4130248181
C     -2.069443255     -3.5265688649     -0.4067475744
C     -2.6691760906     -2.3390179148     -0.818512224
C     0.0281556307     -4.0540894336     0.4331634212
C     -0.6950479768     -3.773769737     -0.7993596137
C     1.3606664985     -3.6617384462     0.5474652377
C     0.7387178025     -1.969168013     2.3094028481
C     1.7564121352     -2.6151015702     1.5344900081
C     0.8669573147     -0.5433407486     2.5857863995
C     -1.6422320348     -0.32410514     2.3663080004
C     -0.3520045863     0.2370034522     2.7382209929
C     -3.2210079801     -0.2410103279     0.47264084
C     -2.5623775937     0.4802611251     1.5348908828
C     -3.3269477178     0.392111501     -0.8170690455
C     -2.0787227804     -1.5268626879     -1.8468709595
C     -2.5796998323     -0.2268000874     -1.9427797392
C     -0.0551352773     -3.0121163868     -1.8361102404
C     -0.7220572911     -1.7975516126     -2.3350962093
C     2.0892989287     -3.4468733782     -0.6218532171
C     1.3845796666     -3.0497890428     -1.819711559
C     2.8333529477     -1.8702624842     0.9763122471
C     3.1032904187     -2.4334912214     -0.3357944437
C     2.0979302936     0.1452276206     2.2061063576
C     2.9597944833     -0.4680964962     1.1917737896
C     2.1424982102     1.5582312735     2.3417501303
C     -0.2622769846     1.6556649342     2.7644140767
C     0.9819564976     2.2789849464     2.7539657812
C     -2.3409283748     1.9145690756     1.3697186496
C     -1.2436815762     2.504734334     2.0489005393
C     -3.2612184549     1.755826163     -0.9355316284
C     -2.7878716312     2.5787484112     0.1565116164
C     -1.8802800342     0.8401325865     -2.597704123
C     -2.4486651546     2.0649512164     -2.1211328425
C     0.0635633119     -0.6444184326     -2.7686993072
C     -0.4799389535     0.7117035907     -2.7973789088
C     2.114107528     -1.9541929295     -2.3521030181
C     3.2143362312     -1.6044728147     -1.4228726818
C     1.4946488001     -0.7608734469     -2.7118941929
C     3.3449462557     0.3627660508     0.0487579547
C     3.2585754481     -0.2007587805     -1.2612783558
C     2.2920473527     0.3549426529     -2.1715896101
C     2.7460513648     2.3656964512     1.3092580454
C     3.0734104204     1.7569816516     0.0986582551
C     0.8443980629     3.4961947603     1.9349220381
C     -0.5148209037     3.6236519769     1.5057161469
C     1.8931633496     3.5228270957     1.0378607117
C     -1.960264153     3.5784579967     -0.4318399899
C     -1.659754145     3.1376066628     -1.8101999287
C     -0.7595972347     3.9986539697     0.1539997259
C     0.3706368147     1.8870566599     -2.4540967631
C     1.7418056182     1.6402860052     -2.0028205773
C     2.3243810995     2.433646022     -0.9715565881
C     1.6156240257     3.5398267956     -0.3886693063
C     -0.2379491937     3.0790033499     -1.9650427142
C     0.3286023961     3.8167766945     -0.8333722715


