60

 C     -1.9699232441     -3.7479485541     0.5515064364
C     -2.7268318382     -3.0322500999     -0.359105899
C     -3.30697069     -1.8915051314     0.3640979677
C     -1.8894831072     -2.9152197497     1.8070171998
C     -2.6980603204     -1.7634387791     1.6589781304
C     -0.543432287     -2.8191093762     2.1805202217
C     -0.6849048011     -4.1473503132     0.2253597841
C     0.2001932129     -3.7239924129     1.3071403504
C     -0.0793427836     -3.7248127039     -1.0120320533
C     -2.1375757401     -2.500941607     -1.5576853191
C     -0.7684846006     -2.7910562199     -1.8803723296
C     -3.3779601172     -0.7933846668     -0.4790220675
C     -2.6267756166     -1.1395652451     -1.6798611506
C     -3.3484568567     0.5171753182     0.0738067813
C     -2.2315645218     -0.4817256584     2.089743486
C     -2.8190980303     0.6837248897     1.4336655104
C     0.0098412689     -1.5496824389     2.5660318857
C     -0.8825685381     -0.3926750919     2.6389441388
C     1.4386245197     -1.3465421482     2.3099797962
C     1.4194629694     -3.3374830818     0.7726897418
C     1.303316859     -3.480713153     -0.6941462414
C     2.138233124     -2.2271504053     1.3390515378
C     2.0746193178     -2.6740935757     -1.4965346508
C     0.0286784164     -1.7260575489     -2.5531744056
C     1.438189766     -1.7952822843     -2.4771121814
C     -1.9306713296     -0.115050862     -2.3601956824
C     -0.5635468143     -0.3932715381     -2.8228850925
C     -3.1350046902     1.5362112193     -0.8908449824
C     -2.3359355465     1.2151870699     -2.0530856125
C     -2.7717400682     2.8507119169     -0.4718747769
C     -2.3033382198     1.965293923     1.7657578904
C     -2.4002483256     3.0577357407     0.8429938852
C     -0.2915579587     0.9343089307     2.7984653242
C     -1.0287791452     2.0835414361     2.4205529136
C     1.9885401732     -0.0711105018     2.5322520627
C     1.1458731262     1.0654084349     2.833060236
C     3.0764278366     0.4457017782     1.7150818523
C     3.145818928     -1.6613913787     0.5110231989
C     3.133848962     -1.9454560206     -0.891388543
C     3.5630547788     -0.2773027607     0.649024043
C     2.2776233922     -0.600913897     -2.552915414
C     3.3220832022     -0.7020290033     -1.587457973
C     3.5950675967     0.3436066383     -0.6727678219
C     0.2905486895     0.7263069411     -2.9931920325
C     1.6989995726     0.640104153     -2.7504687255
C     -1.4304651789     2.3553004421     -2.2582916311
C     -1.6972435847     3.365506367     -1.3195222452
C     -0.1060598476     2.063060072     -2.5967783423
C     -1.138277161     3.811866823     0.8559414979
C     -0.3385433538     3.2895828799     1.8681706744
C     -0.6487854698     3.9025179258     -0.4957627685
C     1.7916883619     2.267088809     2.3929137999
C     2.8853293676     1.8626610794     1.5730031904
C     1.0533968699     3.2543800112     1.695132469
C     3.0170365953     1.6579233544     -0.8735398243
C     2.1080024451     1.7970417151     -1.9656542596
C     0.9850881408     2.7056368532     -1.9047571362
C     0.7279223702     3.5481930659     -0.7650489462
C     2.7494625372     2.4605758559     0.2884023894
C     1.6046569866     3.3621523637     0.3551698124


