60

 C     2.2788832171     3.923594696     0.
C     1.4065816386     3.9393196044     1.1709430426
C     0.1123660243     4.2333449286     0.7450334192
C     1.4065816386     3.9393196044     -1.1709430426
C     0.1123660243     4.2333449286     -0.7450334192
C     1.5833374738     2.7146335446     -1.9419846021
C     2.8397275402     2.6484162522     0.
C     2.5609915978     1.9320818887     -1.2312369882
C     1.5833374738     2.7146335446     1.9419846021
C     2.5609915978     1.9320818887     1.2312369882
C     0.4845811498     2.0421165154     2.5621775961
C     -1.0024663637     3.4810973845     1.1796139441
C     -0.870558334     2.5115114359     2.2261432258
C     -1.0024663637     3.4810973845     -1.1796139441
C     -1.7690257073     3.1148690831     0.
C     0.4845811498     2.0421165154     -2.5621775961
C     -0.870558334     2.5115114359     -2.2261432258
C     0.6951232151     0.6411730192     -2.9077721278
C     2.5629995371     0.5318841293     -1.2457770675
C     1.7968385435     -0.1057558296     -2.2997890369
C     2.5629995371     0.5318841293     1.2457770675
C     2.7967888486     -0.1994757344     0.
C     0.6951232151     0.6411730192     2.9077721278
C     1.7968385435     -0.1057558296     2.2997890369
C     -0.4494257394     -0.1355060998     3.2992276095
C     -1.9329047923     1.5674546839     2.3283945093
C     -1.7261372034     0.3602608214     3.012241194
C     -2.6336235008     1.9713164497     0.
C     -2.7869881954     1.2495849126     1.2071127587
C     -1.9329047923     1.5674546839     -2.3283945093
C     -2.7869881954     1.2495849126     -1.2071127587
C     -0.4494257394     -0.1355060998     -3.2992276095
C     -1.7261372034     0.3602608214     -3.012241194
C     -0.5141294625     -1.5788517912     -3.1225221081
C     1.7814244132     -1.5196927274     -2.3071249959
C     0.6161000319     -2.2767941263     -2.8019303393
C     2.6921312503     -1.6250064154     0.
C     2.3366954403     -2.2845530395     -1.2370665076
C     1.7814244132     -1.5196927274     2.3071249959
C     2.3366954403     -2.2845530395     1.2370665076
C     -0.5141294625     -1.5788517912     3.1225221081
C     0.6161000319     -2.2767941263     2.8019303393
C     -2.50179138     -0.7148642707     2.3791070118
C     -3.0620486876     -0.1976046235     1.2056071582
C     -1.7637204694     -1.8982815291     2.3945616151
C     -3.0620486876     -0.1976046235     -1.2056071582
C     -2.50179138     -0.7148642707     -2.3791070118
C     -1.7637204694     -1.8982815291     -2.3945616151
C     -3.0101014426     -0.9665381204     0.
C     -1.7567720311     -2.7826451584     1.260451324
C     -1.7567720311     -2.7826451584     -1.260451324
C     -2.333421808     -2.2873167717     0.
C     0.5028635081     -3.4868584491     -2.0697944394
C     1.6325961744     -3.5627207669     -1.2047879805
C     -0.6641809804     -3.72447737     -1.2281352793
C     1.6325961744     -3.5627207669     1.2047879805
C     0.5028635081     -3.4868584491     2.0697944394
C     -0.6641809804     -3.72447737     1.2281352793
C     1.2583920321     -4.178414313     0.
C     -0.2025002486     -4.2731596046     0.


