60

 C     5.054386404     -0.1253228766     0.2619918491
C     4.542498117     0.8677399172     -0.6173110161
C     3.9148921141     1.9027482331     0.1214410287
C     4.5221338379     0.2011824883     1.5959825923
C     3.8838151797     1.4694256058     1.5437670312
C     3.7843058048     -0.9041962367     2.0896164106
C     4.4028865799     -1.3397605713     -0.1321520105
C     3.6929177375     -1.8669002274     0.9654375136
C     3.7342379871     0.256265881     -1.6623688557
C     3.6265391369     -1.1416510095     -1.3420413372
C     2.6083562769     0.9358854037     -2.214494035
C     2.64162678     2.3873638942     -0.2356629987
C     1.9881239394     2.03697014     -1.4778985509
C     2.5581600621     1.6310054615     1.9907931357
C     1.8268399147     2.3856426318     0.9529445914
C     2.4686659795     -0.7429642     2.5675166208
C     1.8329663834     0.5496739619     2.6132433502
C     2.3575471239     -2.3487394308     0.8614944961
C     1.6393716677     -1.8030670456     1.9888398638
C     2.3713754706     -1.8306094993     -1.5430165797
C     1.6779796763     -2.4599733508     -0.3982403241
C     1.7358627703     0.0912471443     -2.9495922565
C     1.5620928056     -1.3039055164     -2.5489555985
C     0.4793817236     0.5580919205     -3.3275311603
C     0.5586882395     2.256685473     -1.5730570701
C     -0.1438718186     1.6234798925     -2.6533051018
C     0.4431292972     2.4129653298     0.9050094593
C     -0.2399934771     2.5502435023     -0.380770801
C     0.3979630159     0.602291644     2.6037752568
C     -0.2626986089     1.7457812678     1.9945444965
C     0.2626986089     -1.7457812678     1.9945444965
C     -0.3979630159     -0.602291644     2.6037752568
C     0.2399934771     -2.5502435023     -0.380770801
C     -0.4431292972     -2.4129653298     0.9050094593
C     0.1438718186     -1.6234798925     -2.6533051018
C     -0.4793817236     -0.5580919205     -3.3275311603
C     -0.5586882395     -2.256685473     -1.5730570701
C     -1.5620928056     1.3039055164     -2.5489555985
C     -1.7358627703     -0.0912471443     -2.9495922565
C     -1.6779796763     2.4599733508     -0.3982403241
C     -2.3713754706     1.8306094993     -1.5430165797
C     -1.6393716677     1.8030670456     1.9888398638
C     -2.3575471239     2.3487394308     0.8614944961
C     -1.8329663834     -0.5496739619     2.6132433502
C     -2.4686659795     0.7429642     2.5675166208
C     -1.8268399147     -2.3856426318     0.9529445914
C     -2.5581600621     -1.6310054615     1.9907931357
C     -1.9881239394     -2.03697014     -1.4778985509
C     -2.6083562769     -0.9358854037     -2.214494035
C     -2.64162678     -2.3873638942     -0.2356629987
C     -3.6265391369     1.1416510095     -1.3420413372
C     -3.7342379871     -0.256265881     -1.6623688557
C     -3.6929177375     1.8669002274     0.9654375136
C     -3.7843058048     0.9041962367     2.0896164106
C     -4.4028865799     1.3397605713     -0.1321520105
C     -3.8838151797     -1.4694256058     1.5437670312
C     -3.9148921141     -1.9027482331     0.1214410287
C     -4.542498117     -0.8677399172     -0.6173110161
C     -4.5221338379     -0.2011824883     1.5959825923
C     -5.054386404     0.1253228766     0.2619918491


