60

 C     -1.7926840211     -3.9476125398     -0.5024531885
C     -0.3654933433     -4.1092213708     -0.5094650698
C     0.1437474154     -3.7590540006     0.7524178312
C     -2.1624135455     -3.3431838341     0.7609612265
C     -1.0025119231     -3.1702179761     1.519076674
C     -2.9210500895     -2.1362006332     0.4898578902
C     -2.0705082213     -2.9708845148     -1.4678626481
C     -2.9024679242     -1.9309596958     -0.9284010356
C     0.1935393122     -3.4185253565     -1.663158573
C     -0.8760831477     -2.6073143686     -2.229776278
C     1.4594266314     -2.8814251529     -1.5650861213
C     1.456791166     -3.2185108538     0.8850271184
C     2.1981083064     -2.9212841135     -0.3053911066
C     1.6829690573     -2.3721591852     2.0220691333
C     -0.7914678145     -1.9672099677     2.3114478958
C     0.5242197019     -1.6769428934     2.6592963306
C     -2.8749649392     -1.0017321855     1.343712375
C     -1.7666405932     -0.8560305457     2.2718021365
C     -3.4621977866     0.1634525632     0.7704999994
C     -2.8535758296     -0.6273910965     -1.4869807036
C     -3.4418705568     0.3742431237     -0.6883169764
C     -0.6618180332     -1.2691156722     -2.6170720743
C     -1.7508000089     -0.2818512471     -2.400968444
C     1.7568392713     -1.6324703627     -2.2154804888
C     0.7314887336     -0.7904817518     -2.7195523996
C     3.1577857686     -1.8473247026     -0.331912642
C     2.9353503483     -1.0843613118     -1.5528076334
C     2.7443830257     -1.4832191047     2.0256554692
C     3.4904082167     -1.1569850243     0.8482240066
C     0.9479319744     -0.3232355968     2.9739218672
C     2.3096194863     -0.2220508747     2.6326638928
C     -1.3453500827     0.4911699787     2.6328345066
C     0.0813894115     0.786245375     2.8107125637
C     -3.2940896255     1.3993265964     1.3926376409
C     -2.1973430622     1.5860573645     2.2790178131
C     -3.1909699017     1.7649415584     -0.9180733736
C     -3.2392232588     2.4404896664     0.3532793281
C     -1.4556232011     1.0821670874     -2.5384807982
C     -2.1926008529     2.1248394533     -1.844067103
C     1.0104102973     0.6448216885     -2.7970184173
C     -0.0812199822     1.5524244121     -2.7548078513
C     3.2008389857     0.2624279404     -1.6094459438
C     2.2868950905     1.1397285148     -2.336486622
C     3.6375155707     0.2898931488     0.82188191
C     2.8351365839     0.8614477768     1.916422435
C     3.6348052552     0.9594060822     -0.3980579477
C     0.6723730037     2.0279875149     2.299860563
C     2.0177059726     2.0310669865     1.7467572783
C     -1.6127575018     2.8633331534     1.9370500115
C     -2.2624607739     3.3469175822     0.7009650041
C     -0.2435926636     3.0327663235     1.8126553981
C     -1.2484574594     3.1745970663     -1.5126293146
C     0.0240474042     2.8452714331     -2.1420425007
C     -1.2429360701     3.739217554     -0.222144981
C     0.0132263622     3.7348546027     0.5337151568
C     2.357704233     2.4119075598     -1.7296193195
C     3.0723376361     2.263207876     -0.4556775611
C     2.2865097304     2.8252461809     0.5632553696
C     1.228669055     3.2210829669     -1.5278077121
C     1.2109989056     3.5664168027     -0.0966337971


