60

 C     -2.3104652974     -3.6283687511     1.198751185
C     -1.3370802455     -4.2375929769     0.3555721129
C     -0.0449937166     -4.2389635131     0.9895120773
C     -1.5591509682     -2.9153512308     2.189617979
C     -0.1624751004     -3.237216195     2.0754323783
C     -1.9535990595     -1.5448166518     2.1813353809
C     -3.0024701629     -2.6437737276     0.4281264804
C     -2.9427482036     -1.4048570602     1.1315956727
C     -1.4773323042     -3.7144804743     -0.9908158185
C     -2.4505320136     -2.6363090135     -0.9048699993
C     -0.3164869905     -3.5264139336     -1.7450602432
C     1.076380571     -4.2314841188     0.1593489555
C     0.9233843821     -4.0122724829     -1.2606034566
C     2.227205403     -3.4674879126     0.5889305472
C     0.8044891798     -2.2003489888     2.219286138
C     2.0549450984     -2.4321738416     1.5351793685
C     -1.0300511551     -0.4752768557     2.4074075265
C     0.3782377154     -0.7858656442     2.4638344448
C     -1.4868681351     0.8659799104     2.0720649438
C     -3.0343620959     -0.1966664435     0.4417877765
C     -2.6090309563     0.9821202104     1.1447837129
C     -2.237094151     -1.3901156795     -1.5722414837
C     -2.849734711     -0.2249488776     -1.003099483
C     -0.0695910546     -2.2144929231     -2.3963431059
C     -0.9953611658     -1.1610604263     -2.3266197189
C     1.9435256429     -3.048374015     -1.6451065006
C     2.8077078704     -2.8265227609     -0.5771398471
C     1.3315129709     -1.9255098611     -2.3320598883
C     2.8062809834     -1.2689098314     1.0898819143
C     3.1686600693     -1.4849413051     -0.2733528465
C     1.3024838983     0.3220876574     2.2750986424
C     2.5450350465     0.0252070785     1.5667381307
C     -0.5894369075     1.9895641552     2.2183276806
C     0.8386654973     1.7111636847     2.3103365241
C     -1.041918589     3.2945057105     1.7152984616
C     -2.8489105723     2.2107086363     0.4706692192
C     -2.151386647     3.3728379874     0.8619789506
C     -2.6177949271     1.0136006417     -1.6358604213
C     -2.9123047141     2.1971541763     -0.9614099083
C     -0.4784919436     0.2102392809     -2.530997642
C     -1.388842035     1.2617875431     -2.3762885864
C     1.8320585875     -0.5912142325     -2.1787385566
C     2.9186554863     -0.427509541     -1.211657508
C     0.9446751829     0.5266648376     -2.4109952585
C     3.1081434987     1.0393249386     0.75278104
C     3.1142602361     0.8400294924     -0.694189068
C     1.75730725     2.7566274097     1.836289329
C     2.8166916161     2.3740530863     1.002820533
C     -0.0738603846     4.2530116419     1.1995168722
C     1.2520601556     3.9867869141     1.2412975834
C     -1.7486191922     4.1176334826     -0.3777170228
C     -2.0494967756     3.2782506468     -1.456050433
C     -1.0021794269     2.6678573018     -2.2056274123
C     -0.462715172     4.5825219381     -0.2098668606
C     1.3520239954     1.9094281572     -2.063786542
C     2.5375016767     2.0233562565     -1.2822358621
C     2.6640768959     3.0689700287     -0.3006122564
C     1.7506648999     4.0633187606     -0.1695505223
C     0.3705349805     3.0182977087     -1.9794464464
C     0.6082157834     4.1302303953     -1.0512588628


