60

 C     2.0123867532     4.0417406359     0.6614390807
C     2.4317219143     3.4299116808     -0.6067806038
C     1.4131332081     3.555904666     -1.537267404
C     0.6098732446     4.3462725093     0.5368250806
C     0.2442521104     4.1511498423     -0.8205456539
C     -0.1340968102     3.5678124434     1.508849156
C     2.1083192351     2.9942867824     1.5889226489
C     0.8271980382     2.719929304     2.187348354
C     2.9696369788     2.1085940893     -0.382671354
C     2.8034766634     1.8490427588     1.027482458
C     2.7035627786     1.0360391179     -1.2802892011
C     0.939545402     2.4232603666     -2.2601670785
C     1.6106663009     1.1722093845     -2.2347939888
C     -0.8995013493     3.4450620334     -1.1928429187
C     -0.4976947108     2.4209934032     -2.1660396305
C     -1.4254430719     3.0444648498     1.2052957618
C     -1.8785494069     3.0645774535     -0.1994702511
C     -1.8485888094     1.928955845     1.9814712199
C     0.501610901     1.3950984465     2.5909142631
C     -0.8727833626     1.0874424508     2.652357689
C     2.5693140115     0.5397167401     1.4911551021
C     1.4323286533     0.2809124717     2.3551799033
C     3.0599529067     -0.2724267828     -0.8015404489
C     3.0668793671     -0.5156610014     0.6322260846
C     2.7198155495     -1.3751158234     -1.6345260734
C     0.8435260267     -0.02751598     -2.5735462192
C     1.4930780133     -1.262889992     -2.4025008414
C     -1.2688254603     1.258681145     -2.38399144
C     -0.6078194597     -0.0161278833     -2.6201550667
C     -2.8207003595     2.1216941564     -0.6128771844
C     -2.5852532716     1.2929748051     -1.81322759
C     -2.9451751729     1.0903257545     1.5916548328
C     -3.5221767224     1.2654917634     0.3205641769
C     -1.364387698     -0.2679036447     2.6680725214
C     -2.6933788651     -0.2661153582     2.0927771111
C     0.9559118785     -1.0765599347     2.4695831121
C     -0.4832144141     -1.3593280127     2.5469614009
C     2.9029133642     -1.8348406216     1.0985025279
C     1.8182478766     -2.1117816121     1.9975286852
C     2.8355041663     -2.7088563929     -1.182643482
C     2.9926774086     -2.9659198287     0.1876069502
C     0.7748276927     -2.5252043521     -2.2643063626
C     1.6243070752     -3.4463874861     -1.6013738408
C     -1.3478902704     -1.2622744915     -2.3607848309
C     -0.6276895713     -2.4836171211     -2.0149926868
C     -3.3295564278     0.1201375058     -1.720074675
C     -3.9668515923     0.1034215982     -0.4009612114
C     -2.7098177925     -1.1547916568     -1.9300675264
C     -3.137441706     -1.3760302227     1.3780322309
C     -3.8277533415     -1.166975784     0.123150863
C     -3.1818874053     -2.0195386075     -0.8679957149
C     -0.9940368505     -2.5664224151     1.8658592018
C     -1.1032479611     -3.3018582258     -0.8931692894
C     -2.2339084454     -2.4871425801     1.2020117154
C     -2.2807628128     -2.8599622339     -0.221019187
C     1.3049345741     -3.4357433214     1.6356950382
C     2.0884783682     -4.0112860231     0.602268131
C     1.1762299064     -4.2131880237     -0.5006878665
C     -0.0801596392     -3.5250106567     1.3397105762
C     -0.1657175069     -3.9596281335     -0.058136355


