60

 C     1.8036905035     -3.6160938345     -1.0240698656
C     0.6623058738     -3.4876814596     -1.7665542114
C     -0.5073390009     -3.8740673353     -0.949125564
C     1.3444618117     -3.9849935489     0.360644062
C     -0.0968215847     -3.9928276527     0.4056261953
C     2.041517517     -3.2048882675     1.2274028334
C     2.7112431576     -2.5118458432     -0.919453986
C     3.036717343     -2.4091148507     0.4773362948
C     2.4859007667     -1.3020105787     -1.6647500198
C     0.3329586801     -2.2813200658     -2.473666693
C     1.249863775     -1.1803364553     -2.4483832699
C     -1.5804735672     -3.0613032296     -1.345206948
C     -1.0714766184     -2.0421240305     -2.286844719
C     -2.4821350593     -2.6761683837     -0.3670316588
C     -0.7989049535     -3.2220466521     1.413257032
C     -2.1182015033     -2.8276232125     1.0337118244
C     1.3839694787     -2.3219592213     2.1812818363
C     -0.0454909113     -2.2974513715     2.2858868365
C     3.1156748215     -1.1729708493     1.0834207646
C     2.1342493885     -1.1181625279     2.1873847647
C     3.0721697801     -0.0818686996     -1.1241998549
C     3.3908495172     -0.0112383286     0.3028745471
C     2.7330373914     1.1421577772     -1.7643202089
C     0.676769085     0.1279127467     -2.7326780051
C     1.517325553     1.2539392115     -2.5200746949
C     -1.6592458583     -0.7553897346     -2.3567195946
C     -0.7764796237     0.3361213364     -2.7464149705
C     -3.2527329454     -1.4550145461     -0.5469787259
C     -2.8762793032     -0.500217454     -1.5609418575
C     -2.7539853972     -1.7544574216     1.6899550451
C     -3.5953831759     -0.9977944244     0.7356505657
C     -0.6481655115     -1.0218460361     2.713162919
C     -2.0652425891     -0.8387169004     2.4863918871
C     1.5765045719     0.1339226437     2.5538357406
C     0.1545809583     0.1824584475     2.8564177058
C     3.2302646872     1.2118888794     1.0011258687
C     2.2694526293     1.2852888318     2.0891886674
C     2.8977059266     2.3908803121     -1.0726393568
C     3.1555919041     2.4453229475     0.2888905329
C     0.9650239357     2.6080630122     -2.3138796064
C     1.7925890179     3.2955304961     -1.3962459498
C     -1.2779646224     1.6754197715     -2.6045117569
C     -0.4041087203     2.7800153382     -2.2729917588
C     -3.2225817261     0.8523770214     -1.2862955885
C     -2.4890405357     1.8948620999     -1.915163565
C     -3.5740228248     0.3636401636     1.083149682
C     -2.653719341     0.4847191923     2.2236837832
C     -3.5342386524     1.3121100534     0.0599615022
C     -0.4823236433     1.4776469864     2.724925235
C     -1.8774065915     1.6037309978     2.3266568831
C     1.5816474172     2.5621319594     1.9458603443
C     2.1244712695     3.2939864115     0.8821448265
C     1.2477505908     3.768150613     -0.1687967607
C     0.1889215713     2.600765159     2.1991681253
C     -1.0008515805     3.5033128635     -1.1443265359
C     -2.3124475233     3.0031698947     -0.9947292476
C     -2.823658756     2.575467526     0.2605906136
C     -2.0027348332     2.7255577509     1.3956312867
C     -0.1890583496     3.7896181048     0.0172710153
C     -0.7046935208     3.3213645669     1.2745057537


