60

 C     4.9988551224     -0.1605017678     1.1095895251
C     4.4001968733     -1.3607407395     1.3640999218
C     3.8704249052     -1.9610721769     0.1262485145
C     4.8446335193     0.0810362021     -0.3518642208
C     4.1035949705     -1.0498710693     -0.9566100634
C     4.2884131213     1.3336683476     -0.4763069944
C     4.2114000986     0.856856639     1.8326481287
C     3.8634352699     1.8065927994     0.8870796732
C     3.2911468551     -1.2213739969     2.3043709509
C     3.1060028098     0.1922340825     2.5434194176
C     2.5717648078     -2.4220784132     0.4089784834
C     2.2232082104     -1.9715236507     1.7831356342
C     1.5650054329     -2.3795569494     -0.5792804673
C     3.0462866     -0.8123657979     -1.8771463524
C     1.8684784763     -1.7021218836     -1.8285590234
C     3.2156838109     1.5972915236     -1.3725963939
C     2.7446452623     0.5836960114     -2.2619088415
C     2.5443162209     2.3094205858     0.7471057778
C     2.2198385034     2.3775025082     -0.6682135104
C     1.7835110857     0.7129568872     2.4658271183
C     1.5088862562     1.8869676192     1.6251589761
C     0.9035050311     -1.5629966173     2.0215073398
C     0.6745416599     -0.23943408     2.5173200842
C     0.1770939596     -2.5160318812     -0.1335225504
C     -0.1552491904     -2.1447746973     1.2146925109
C     -0.8808614985     -2.4406939198     -1.112965755
C     0.7677231012     -1.4220566216     -2.6884650091
C     -0.5908808497     -1.8491904999     -2.3703150999
C     1.499307017     0.8599794555     -2.8753352038
C     0.6862826102     -0.2006853818     -3.398092571
C     0.8808614985     2.4406939198     -1.112965755
C     0.5908808497     1.8491904999     -2.3703150999
C     0.1552491904     2.1447746973     1.2146925109
C     -0.1770939596     2.5160318812     -0.1335225504
C     -0.6745416599     0.23943408     2.5173200842
C     -0.9035050311     1.5629966173     2.0215073398
C     -1.5088862562     -1.8869676192     1.6251589761
C     -1.7835110857     -0.7129568872     2.4658271183
C     -2.2198385034     -2.3775025082     -0.6682135104
C     -2.5443162209     -2.3094205858     0.7471057778
C     -3.2156838109     -1.5972915236     -1.3725963939
C     -1.499307017     -0.8599794555     -2.8753352038
C     -0.6862826102     0.2006853818     -3.398092571
C     -0.7677231012     1.4220566216     -2.6884650091
C     -2.7446452623     -0.5836960114     -2.2619088415
C     -1.5650054329     2.3795569494     -0.5792804673
C     -1.8684784763     1.7021218836     -1.8285590234
C     -3.0462866     0.8123657979     -1.8771463524
C     -2.2232082104     1.9715236507     1.7831356342
C     -2.5717648078     2.4220784132     0.4089784834
C     -3.1060028098     -0.1922340825     2.5434194176
C     -3.2911468551     1.2213739969     2.3043709509
C     -3.8634352699     -1.8065927994     0.8870796732
C     -4.2884131213     -1.3336683476     -0.4763069944
C     -4.2114000986     -0.856856639     1.8326481287
C     -4.1035949705     1.0498710693     -0.9566100634
C     -3.8704249052     1.9610721769     0.1262485145
C     -4.4001968733     1.3607407395     1.3640999218
C     -4.8446335193     -0.0810362021     -0.3518642208
C     -4.9988551224     0.1605017678     1.1095895251


