60

 C     -0.969050517     -4.4470931423     1.2597211207
C     -0.812542887     -4.6626717779     -0.1105317991
C     0.5311444133     -4.3835893007     -0.5221263145
C     0.2814720371     -3.9008524136     1.7456908306
C     1.243858954     -3.8995156705     0.6302360733
C     0.0125231798     -2.641500591     2.3328562314
C     -1.9626807089     -3.3898527794     1.3800157633
C     -1.4287021687     -2.349704549     2.1644796545
C     -1.6968031514     -3.7708157248     -0.8676522765
C     -2.4823109175     -3.0188419681     0.0746793058
C     0.4623876343     -3.5443129319     -1.6920613636
C     -0.9385919249     -3.0954814396     -1.8646277639
C     1.4469867484     -2.6143326672     -1.8785118121
C     2.1543756021     -2.8275085298     0.489751677
C     2.4346710679     -2.3829307237     -0.8470202015
C     0.9444456598     -1.5542359847     2.2921616146
C     2.1562429791     -1.7539566058     1.5097111647
C     0.4714418268     -0.2059951989     2.5582535364
C     -1.85188198     -1.0267913573     1.9808851694
C     -0.9816829171     0.0377031881     2.4895490836
C     -2.7642187926     -1.6757206327     -0.1987869618
C     -2.7537020538     -0.7130410965     0.8934965475
C     -1.215019425     -1.7403171457     -2.1814190893
C     -2.3374075472     -1.1292059165     -1.4926607361
C     1.1833048582     -1.3060568427     -2.4857555394
C     -0.1306268874     -0.830596482     -2.6362305222
C     3.0109573599     -1.1106380702     -1.102620628
C     2.2412315495     -0.4143611639     -2.1312188079
C     2.9613106724     -0.6367350993     1.2900651784
C     3.5416030809     -0.3763603551     -0.0408796435
C     1.3746476144     0.9267882694     2.416102509
C     2.673184303     0.6460221107     1.8722861043
C     0.8301296584     2.2877362457     2.2542412846
C     -1.4648318979     1.3311255058     2.3849075345
C     -0.5724146342     2.4767581769     2.3480656203
C     -3.0856746054     0.656024878     0.6294515798
C     -2.6444658133     1.6461651182     1.557583731
C     -2.5726926804     0.2172287515     -1.721177022
C     -3.2366296617     1.0594462244     -0.7574849736
C     -0.3198474916     0.6132093527     -2.6857992213
C     -1.6560883969     1.0685742267     -2.4992314004
C     2.0921724225     1.000831389     -2.1188781292
C     0.7676795788     1.5566327956     -2.4111746579
C     3.6923733756     0.9992193635     -0.2030795834
C     3.3379311617     1.6310623779     1.0562942482
C     3.0030008997     1.7213491737     -1.2600408147
C     1.5107435469     3.2239905347     1.3706437381
C     2.7185805279     2.8268453011     0.7599603908
C     2.5930679975     2.9623009314     -0.7099679331
C     0.4290022104     2.9012164555     -1.9137869265
C     0.7686289705     3.93490958     0.3552923671
C     1.3305172597     3.4942932988     -0.951665332
C     -1.2360649545     3.4951121086     1.6078181015
C     -2.5020919948     2.9951225277     1.1492350138
C     -0.590865583     4.1459720675     0.4846449211
C     -3.000168065     2.3956373986     -1.1574317444
C     -1.9679319184     2.3927954149     -2.1991834812
C     -0.9458013302     3.3145891363     -1.8042701528
C     -2.6402172202     3.3801891538     -0.2269967366
C     -1.4386091246     4.0641655037     -0.6658082267


