60

 C     0.2984945716     -4.1645020242     -0.2086256466
C     -0.9447894519     -3.941840859     0.3009652317
C     -0.8361132441     -3.3763853357     1.6735197658
C     1.2604503207     -3.818194337     0.8614749319
C     0.5258830938     -3.1304765122     1.9430312283
C     2.3429270399     -3.244134893     0.2780286215
C     0.7221881185     -3.4717318023     -1.4258909592
C     2.0679906969     -3.0807355434     -1.1688004574
C     -0.1669834384     -2.5627355084     -2.0870964954
C     -1.934781178     -3.207088416     -0.4098259685
C     -1.585394153     -2.5628499021     -1.6509901648
C     -1.8122485891     -2.3898307228     1.7948357286
C     -2.6715483584     -2.4661765592     0.5975737361
C     -1.4969566275     -1.1204727562     2.3670552327
C     0.9321311474     -1.8415365181     2.3867713713
C     -0.1045729087     -0.8497183887     2.7077556057
C     2.8866339051     -2.0182736317     0.7694397721
C     2.266036348     -1.356166725     1.9143799094
C     2.5561773146     -1.8405636276     -1.537195695
C     3.2448732883     -1.2396498828     -0.3614964876
C     0.3945918516     -1.3199822459     -2.6438828166
C     1.7882164914     -0.9960782286     -2.3911482252
C     -0.5068718447     -0.1811020701     -2.9597529592
C     -2.4130588792     -1.4620611134     -2.0071968877
C     -1.8692103377     -0.2640193121     -2.6400956595
C     -3.425507416     -1.3821006263     0.2329285112
C     -3.4377466072     -1.0231589317     -1.1431992518
C     -2.4236598735     -0.0110959736     2.0602909576
C     -3.3858520754     -0.1502894285     1.0201961149
C     -2.0063449469     1.3268618748     2.3724626939
C     0.3027318258     0.5496065763     2.9347201677
C     -0.6456767614     1.5972527164     2.8279034243
C     2.5967092731     -0.0206970534     2.0749452942
C     1.682503976     0.9162985332     2.7259718692
C     3.457395492     0.151561309     -0.2599400778
C     3.3506270666     0.7152017429     1.0579508861
C     2.246007844     0.3723256968     -2.4387871759
C     3.1065743376     0.9534013995     -1.3799357808
C     0.0277510745     1.1577645343     -3.0406275349
C     1.4345262276     1.3832225241     -2.9336248008
C     -0.6192044984     2.2779235455     -2.4309410751
C     -2.5989544672     0.9033201844     -2.1441944213
C     -3.5451840699     0.4162893342     -1.2219148405
C     -3.6205000757     0.9545666157     0.0904321366
C     -1.9126704865     2.147671384     -1.8685058095
C     -2.4468398449     2.4211319119     1.6026738846
C     -3.0496811009     2.2123132271     0.3309367012
C     -2.2062871262     2.8419682978     -0.6550705907
C     -0.2713606586     2.9075303049     2.2951121196
C     -1.3354533889     3.3273569409     1.4458642831
C     -1.1276202079     3.5503142922     0.0729069139
C     2.0175039317     2.2001681159     2.2636840703
C     2.9847314313     2.0637519578     1.1874519026
C     1.0321341868     3.1395821403     1.8708167725
C     2.6989688561     2.323843488     -1.2105725426
C     1.6686023568     2.594177853     -2.1783429884
C     0.4280338349     3.0943393512     -1.784474213
C     0.2184660131     3.6188356859     -0.4439569337
C     2.5600226818     2.8561536171     0.0870291386
C     1.3011876186     3.518913574     0.4769771826


