60

 C     -0.1765614791     0.6724627322     5.3527934393
C     0.1765614791     -0.6724627322     5.3527934393
C     1.4261587143     -0.8152357473     4.590712514
C     0.8147004827     1.4108680492     4.5985002247
C     1.7714860667     0.4697206927     4.0067926825
C     0.1459190521     2.325829321     3.7583245126
C     -1.4261587143     0.8152357473     4.590712514
C     -1.3160753283     1.9292912729     3.7540151382
C     -0.8147004827     -1.4108680492     4.5985002247
C     -1.7714860667     -0.4697206927     4.0067926825
C     1.3160753283     -1.9292912729     3.7540151382
C     -0.1459190521     -2.325829321     3.7583245126
C     1.723869428     -1.8726207369     2.4200462545
C     2.0962021365     0.5587021724     2.6059321796
C     2.2235151118     -0.6659135751     1.8037705616
C     0.52916409     2.4963202016     2.4410849406
C     1.6131073855     1.7163195762     1.8424243989
C     -1.723869428     1.8726207369     2.4200462545
C     -0.7055841038     2.5594533165     1.6401437659
C     -2.0962021365     -0.5587021724     2.6059321796
C     -2.2235151118     0.6659135751     1.8037705616
C     -0.52916409     -2.4963202016     2.4410849406
C     0.7055841038     -2.5594533165     1.6401437659
C     -1.6131073855     -1.7163195762     1.8424243989
C     0.6655187351     -2.49969648     0.2954054392
C     2.2222362692     -0.6254995191     0.3547747967
C     1.6761091832     -1.72955485     -0.4310682109
C     1.6761091832     1.72955485     0.4310682109
C     2.2222362692     0.6254995191     -0.3547747967
C     -0.6655187351     2.49969648     0.2954054392
C     0.6655187351     2.49969648     -0.2954054392
C     -2.2222362692     0.6254995191     0.3547747967
C     -1.6761091832     1.72955485     -0.4310682109
C     -1.6761091832     -1.72955485     0.4310682109
C     -0.6655187351     -2.49969648     -0.2954054392
C     -2.2222362692     -0.6254995191     -0.3547747967
C     -0.7055841038     -2.5594533165     -1.6401437659
C     1.6131073855     -1.7163195762     -1.8424243989
C     0.52916409     -2.4963202016     -2.4410849406
C     2.2235151118     0.6659135751     -1.8037705616
C     2.0962021365     -0.5587021724     -2.6059321796
C     0.7055841038     2.5594533165     -1.6401437659
C     1.723869428     1.8726207369     -2.4200462545
C     -1.6131073855     1.7163195762     -1.8424243989
C     -0.52916409     2.4963202016     -2.4410849406
C     -2.2235151118     -0.6659135751     -1.8037705616
C     -1.723869428     -1.8726207369     -2.4200462545
C     -2.0962021365     0.5587021724     -2.6059321796
C     0.1459190521     -2.325829321     -3.7583245126
C     -1.3160753283     -1.9292912729     -3.7540151382
C     1.7714860667     -0.4697206927     -4.0067926825
C     0.8147004827     -1.4108680492     -4.5985002247
C     1.3160753283     1.9292912729     -3.7540151382
C     -0.1459190521     2.325829321     -3.7583245126
C     1.4261587143     0.8152357473     -4.590712514
C     -1.7714860667     0.4697206927     -4.0067926825
C     -1.4261587143     -0.8152357473     -4.590712514
C     -0.1765614791     -0.6724627322     -5.3527934393
C     -0.8147004827     1.4108680492     -4.5985002247
C     0.1765614791     0.6724627322     -5.3527934393


