60

 C     0.1035967933     4.6428661143     -0.972251577
C     -1.1619288447     4.3757863129     -0.391455286
C     -1.035079465     4.1834922923     1.0303170159
C     1.0591094387     4.3526489386     0.0726896916
C     0.3965753919     4.1226814675     1.315220253
C     1.9849618301     3.3686230272     -0.3746206789
C     0.3098550522     3.6074662865     -1.9572916802
C     1.5059813617     2.8958048     -1.6708142049
C     -1.8340837009     3.3464999675     -1.1707528811
C     -0.8600719806     2.7998676873     -2.1207882851
C     -2.658273183     2.4533933639     -0.5191954869
C     -1.6430128884     3.0676027604     1.6402155952
C     -2.6251441338     2.3295152406     0.9479478474
C     0.6532502297     2.9332352836     2.049947837
C     -0.6189320832     2.2899506224     2.3409879089
C     2.509976248     2.4074875832     0.5235248459
C     1.7869799578     2.0988107977     1.761689502
C     3.1865608742     1.3480359588     -0.1246345391
C     1.6500771655     1.519594648     -2.0559298264
C     2.7293363906     0.8775827217     -1.4368806615
C     -0.7917511112     1.3783967953     -2.3943479308
C     0.4987597419     0.7255697754     -2.4959321942
C     -2.836204374     1.1383895251     -1.0595960576
C     -1.9354747945     0.5653450254     -2.0106070984
C     -2.833679191     0.9690031357     1.2613214726
C     -3.2637765285     0.3170003807     0.0330601402
C     -0.7337528285     0.8963653703     2.5408904632
C     -1.9579208994     0.2145884372     2.1122627441
C     1.7649341547     0.7293798614     2.2360672572
C     0.4994197568     0.1196056308     2.6611611458
C     3.5100989729     0.2077128638     0.5927022833
C     2.7932498342     -0.1555242814     1.7587065473
C     2.8830556054     -0.5501130046     -1.5072234745
C     3.5121367293     -0.9558315348     -0.3036710089
C     0.5973480686     -0.7351310469     -2.5029114466
C     1.8563737234     -1.3611839787     -2.0798308305
C     -1.8766051225     -0.8874388688     -2.1141942846
C     -0.6231120801     -1.5445621223     -2.4947161224
C     -3.2716381936     -1.0301853539     -0.09571437
C     -2.8145781255     -1.6339175605     -1.3221595215
C     -2.0012906731     -1.2390864888     2.021665887
C     -2.8615657634     -1.8658460243     1.0339595325
C     0.3882023515     -1.2928729989     2.6691296549
C     -0.8491571211     -1.9842554818     2.3967249456
C     2.6163622802     -1.5993382073     1.715244049
C     3.106424223     -2.0872604873     0.4112539625
C     1.4621587903     -2.1603657826     2.213956069
C     1.8487987787     -2.7213615502     -1.6097128964
C     2.390647672     -3.0575165876     -0.2794295864
C     -0.5076398762     -2.9712670924     -2.2597714273
C     0.7217281098     -3.5168003202     -1.816664968
C     -2.5813076247     -2.9927649627     -0.9888152535
C     -2.565420274     -3.1201760307     0.506761412
C     -1.5259106771     -3.6837107137     -1.4984487623
C     -0.5456650771     -3.301702439     1.8268023346
C     0.8836572075     -3.3713573982     1.6303880688
C     1.4058721849     -3.8611294883     0.4099749876
C     0.4846939293     -4.3242239967     -0.593808009
C     -1.4239129465     -3.8838243982     0.8741007394
C     -0.8632935866     -4.3935540745     -0.3665041437


