60

 C     -1.0006784378     -4.560171208     0.0424802388
C     0.4238261299     -4.4310629872     -0.0976337237
C     0.9549904331     -4.0000027226     1.1386760816
C     -1.3507250427     -3.9106459256     1.3177981401
C     -0.194485287     -3.6351554388     2.0231653382
C     -2.2589085302     -2.8151748614     1.082177958
C     -1.5541974828     -3.7295413377     -0.938517731
C     -2.4468495672     -2.750827573     -0.3562785432
C     0.7366857394     -3.6502910101     -1.2880989831
C     -0.534482256     -3.2342308663     -1.8498782619
C     1.8314319282     -2.7430802164     -1.2863779488
C     1.8825618562     -2.9590036977     1.1998263081
C     2.5004188109     -2.4487567337     -0.0011113089
C     0.0691033957     -2.3296155585     2.5524410022
C     1.4177613146     -1.989383111     2.2013870784
C     -2.135962059     -1.5932570393     1.8085811587
C     -0.9081200838     -1.291202843     2.5546319353
C     -2.8208578668     -0.4991391941     1.2296922428
C     -2.692520624     -1.5256169786     -1.0119650829
C     -3.1746836548     -0.4890360962     -0.1683595048
C     -0.6957569546     -1.974649959     -2.4733271801
C     -1.8870313812     -1.1484292058     -2.1775698734
C     1.7590332198     -1.6649134958     -2.2228143151
C     0.5046424889     -1.2954253054     -2.8282854727
C     2.5519111841     -0.4693262085     -2.0921166499
C     3.1670485765     -1.2296514104     0.1504231356
C     3.3603140537     -0.3061095185     -0.9618978988
C     1.8714927915     -0.6650654889     2.2171508198
C     2.9876346049     -0.4068558816     1.3499579597
C     -0.4617539947     0.0943515556     2.6730928671
C     0.9541536841     0.4128289343     2.5774728845
C     -2.603828408     0.8424977768     1.6582062617
C     -1.4338539186     1.1709709926     2.43364376
C     -3.2117733085     0.8769867356     -0.5812629094
C     -3.0460362849     1.7204343964     0.5972501247
C     -1.8422561672     0.2204952009     -2.5036820465
C     -2.5769878105     1.2308190335     -1.7671280309
C     0.539301047     0.1215888348     -3.073547921
C     1.7940742439     0.6649629963     -2.5929507724
C     -0.6190853643     0.8660222431     -2.9578195637
C     1.847146277     1.9528841318     -1.9961779398
C     3.5161773313     0.9969283807     -0.4383791975
C     3.2913552874     0.9135350593     1.0131647671
C     2.7845724151     2.0963216194     -0.8997855159
C     1.3700507128     1.794350058     2.3010849464
C     2.5250470444     1.9989553172     1.4438789986
C     2.4004236002     2.8831508188     0.2784026402
C     -1.0037645854     2.521995121     2.3778419532
C     0.4154219568     2.8343506291     2.3024882119
C     -2.5297797253     2.9967879423     0.4860412174
C     -1.6894969325     3.4802615599     1.5406017889
C     -1.8500655645     2.494996492     -1.8402576261
C     -0.5824598155     2.2307752461     -2.4826003096
C     0.6347907185     2.8007155063     -1.9820480423
C     -1.9411512139     3.4290045394     -0.8077137127
C     1.3783236213     3.7811775525     0.2188405956
C     0.5647764479     3.9693874617     1.405299269
C     -0.7111258207     4.3351310518     0.96750932
C     0.5012743589     3.8231975628     -0.9781066633
C     -0.7770671316     4.1897569232     -0.4875163739


