60

 C     -1.2808446719     -4.204674046     -0.5751159081
C     0.0263236394     -4.2359744596     -0.032574502
C     0.0036426838     -3.5976543983     1.2693922921
C     -2.1401268754     -3.5694086076     0.35286207
C     -1.3481683397     -3.1492624725     1.4973504381
C     -2.8797516235     -2.5492040094     -0.3405181399
C     -1.2191010346     -3.3444835274     -1.7400457959
C     -2.2158684823     -2.3174622238     -1.6252532156
C     0.9431954451     -3.7014460386     -1.001955741
C     0.1384082944     -3.0078224054     -2.0202495073
C     2.0952303639     -3.1281645023     -0.551826282
C     1.1203061253     -2.8401953625     1.7151636658
C     2.2985394279     -2.9180479517     0.8759762364
C     0.8695023235     -1.5814612812     2.4591224319
C     -1.6114974283     -1.8936213959     2.1295986286
C     -0.4898408604     -1.0628793864     2.5957685598
C     -3.3283242429     -1.4661072796     0.3607341119
C     -2.8211547831     -1.2308248221     1.7147050116
C     -3.444082915     -0.1747544258     -0.2945520752
C     -1.9576970884     -1.0015367962     -2.0824904889
C     -2.7020274364     0.1211636269     -1.4814857423
C     0.4784570833     -1.6884966756     -2.4286694734
C     -0.6304321304     -0.7502042201     -2.6331785054
C     2.6486872353     -1.9539369006     -1.2392766278
C     1.808153043     -1.1594599818     -2.0967073294
C     3.2924964002     -1.921790359     0.9632540048
C     3.5295171235     -1.3247031737     -0.3590499966
C     1.9547646061     -0.6419615688     2.5486898217
C     3.169218716     -0.8694424238     1.8509397657
C     1.729858197     0.7910697416     2.5241734455
C     -0.6892846417     0.4000546658     2.7546402106
C     0.4494645946     1.3294984103     2.6455866796
C     -2.9835365734     0.1349881876     1.9504619266
C     -3.4525501025     0.7889518482     0.7345072471
C     -1.9641771824     0.9517121947     2.4671452172
C     -2.8969262322     2.0745049122     0.6118867912
C     -2.0910877896     2.273333027     1.8002846982
C     -2.2835975417     1.5063776977     -1.7091491833
C     -2.4622026298     2.5462325277     -0.6716721294
C     -0.3050028733     0.5765219214     -2.8989490947
C     -1.1953825216     1.6785473278     -2.6165888843
C     2.0609688254     0.2709113088     -2.1450246144
C     1.0659428268     1.0598197566     -2.7790670242
C     3.5967724569     0.1101166544     -0.2250103228
C     3.5347588686     0.3881652235     1.1605867195
C     2.7074379239     1.4068824083     1.6291533724
C     2.8947718191     0.9482238123     -1.1444124199
C     2.3394272375     2.4711909864     0.7635587557
C     2.5132575532     2.2834588963     -0.6776869684
C     0.287712404     2.6721194078     2.1449349151
C     -1.0318283818     3.1450921226     1.7418939256
C     1.238042737     3.2539498226     1.2412489264
C     -1.5587938766     3.6691685694     -0.6227881761
C     -0.9043109794     3.983204975     0.5977769233
C     0.5282024203     4.1139538714     0.3325541835
C     -0.3876116139     2.8643029651     -2.5923287414
C     1.032094034     2.4512159672     -2.6170724327
C     1.69830999     3.0939824883     -1.551370775
C     -0.5505777704     3.8482053235     -1.6548387734
C     0.7723243236     4.0780602474     -1.025042305


