60

 C     0.1119710125     4.4389968301     0.4452943226
C     1.3727523226     3.9806436698     0.7477399507
C     1.2909893365     3.1227864903     1.9561267976
C     -0.7998446268     3.9134042902     1.496713268
C     -0.058394444     2.9809970548     2.3459094413
C     -1.9554680115     3.5188835012     0.8883283802
C     -0.4858916643     4.1455096932     -0.8450183807
C     -1.8291873532     3.6908670545     -0.5758495491
C     0.2858293705     3.4483106485     -1.7966772917
C     2.1936700532     3.2997906469     -0.2102521752
C     1.660212927     3.073236698     -1.496753978
C     2.132366554     2.0159382596     1.7838322361
C     2.7995163509     2.1692028178     0.48215339
C     1.7283267978     0.7317842915     2.2462653119
C     -0.5725438218     1.6759996131     2.6287982064
C     0.3745892101     0.5637381055     2.7500181728
C     -2.530989018     2.2344420494     1.1632338203
C     -1.9240865231     1.3622056956     2.1369310363
C     -2.3435983152     2.5366585569     -1.1504653042
C     -2.9485113885     1.694374628     -0.0869346206
C     -0.2986915418     2.3198161651     -2.513903219
C     -1.6218614319     1.8595810077     -2.2096644213
C     1.9379213356     1.8147741752     -2.1750685237
C     0.7346167928     1.3622119367     -2.8490374675
C     3.1719334982     1.0421871765     -0.2175402182
C     2.780090524     0.8733296358     -1.602223614
C     2.4344504771     -0.4197394474     1.6607322746
C     3.0961846284     -0.2499645582     0.4057921819
C     1.9998292799     -1.7212446737     1.9547615462
C     -0.1338758825     -0.7998406495     2.8830557648
C     0.7587122079     -1.9151210772     2.7154883396
C     -2.3031305072     0.0125905737     2.037621777
C     -1.505255208     -1.0588503455     2.5905942159
C     -3.1316796991     0.3049454677     -0.26300554
C     -2.9990990393     -0.5138103489     0.9002958438
C     -1.8858596142     0.484184225     -2.4026242225
C     -2.7721770602     -0.2837098266     -1.5124788661
C     0.4638779319     -0.0152481285     -3.0139712466
C     -0.9141381873     -0.4120451762     -2.9372941436
C     2.5664300515     -0.5403295227     -1.8179907775
C     2.9466952634     -1.2524733672     -0.6218779132
C     1.4710876646     -1.0140272989     -2.5958164248
C     2.2011879379     -2.8365238542     1.0617843106
C     2.482823589     -2.5573264737     -0.3301166747
C     0.2760153905     -3.1875623202     2.3866671653
C     1.1895912096     -3.7877698677     1.389845274
C     -1.931481601     -2.2909655228     1.9842084513
C     -2.7123262771     -1.9215701955     0.8114778216
C     -1.0572842395     -3.3825228137     1.9157555709
C     -2.4106452181     -1.6438088982     -1.589253553
C     -1.2814421067     -1.7316233665     -2.5350040966
C     -2.4435750422     -2.5254922215     -0.4515583474
C     1.0756632918     -2.3564420108     -2.3552053751
C     1.6738582289     -3.1905690969     -1.3410765161
C     -0.3450000863     -2.7518891691     -2.4281256189
C     0.4390646332     -4.4412033108     0.4240713771
C     -0.9920366465     -4.1788394286     0.7104181604
C     -1.5646733119     -3.698135651     -0.4776890787
C     0.676314741     -4.1571085203     -0.9467505057
C     -0.5738247453     -3.8356342163     -1.5546863455


