60

 C     -4.2834239054     -0.2716176682     1.0904426089
C     -3.4603613201     -1.0530935758     1.962264947
C     -2.7726883308     -0.1958694716     2.8843425572
C     -3.685470735     1.0440632914     1.1859389052
C     -2.7812096136     1.1507193879     2.2775978577
C     -3.2798013995     1.5001761497     -0.1022302244
C     -4.0082844752     -0.6971299746     -0.2266504801
C     -3.5988167554     0.4278133169     -1.0293011244
C     -2.6783276626     -1.9861733449     1.2058014599
C     -3.0508091204     -1.7755307733     -0.1873743186
C     -1.3199347594     -2.2687102855     1.5831224966
C     -1.6124301306     -0.6657859471     3.4446888856
C     -0.8828879077     -1.7671169889     2.8431404531
C     -0.6372547793     0.3041413509     3.8517841182
C     -1.5326494026     1.856350708     2.1365582074
C     -0.5163438179     1.5091556368     3.0904917687
C     -2.056011166     2.2210038082     -0.2708213961
C     -1.1062657612     2.3675495767     0.833363397
C     -1.586903699     2.2608098362     -1.5990954219
C     -2.8501155581     0.2267259183     -2.1941985097
C     -2.1086862407     1.3804782065     -2.6103493451
C     -2.1108797783     -1.9426726336     -1.2234577449
C     -2.248094794     -1.0920741059     -2.4225601703
C     -0.3260688265     -2.5064676981     0.5305585791
C     -0.7888695242     -2.4761173228     -0.860484023
C     1.1062657612     -2.3675495767     0.833363397
C     0.5163438179     -1.5091556368     3.0904917687
C     0.6372547792     -0.3041413509     3.8517841182
C     1.5326494026     -1.856350708     2.1365582074
C     0.8828879077     1.7671169889     2.8431404531
C     1.6124301306     0.6657859471     3.4446888856
C     0.3260688265     2.5064676981     0.5305585791
C     1.3199347594     2.2687102855     1.5831224966
C     -0.1844003122     2.4997938755     -1.9018108255
C     0.7888695242     2.4761173228     -0.860484023
C     -1.1105416022     1.2563859801     -3.6138284069
C     0.1013251182     1.9852902958     -3.1801052318
C     -1.2395779422     -1.1759994382     -3.4137615033
C     -0.7457792664     0.0207709353     -4.0840677156
C     0.1844003122     -2.4997938755     -1.9018108255
C     -0.1013251182     -1.9852902958     -3.1801052318
C     2.056011166     -2.2210038082     -0.2708213961
C     1.586903699     -2.2608098362     -1.5990954219
C     3.2798013995     -1.5001761497     -0.1022302244
C     2.7812096136     -1.1507193879     2.2775978577
C     2.7726883308     0.1958694716     2.8843425572
C     3.685470735     -1.0440632914     1.1859389052
C     2.6783276626     1.9861733449     1.2058014599
C     3.4603613201     1.0530935758     1.962264947
C     4.2834239054     0.2716176682     1.0904426089
C     2.1108797783     1.9426726336     -1.2234577449
C     3.5988167554     -0.4278133169     -1.0293011244
C     3.0508091204     1.7755307733     -0.1873743186
C     4.0082844752     0.6971299746     -0.2266504801
C     1.2395779422     1.1759994382     -3.4137615033
C     0.7457792664     -0.0207709353     -4.0840677156
C     1.1105416022     -1.2563859801     -3.6138284069
C     2.1086862407     -1.3804782065     -2.6103493451
C     2.248094794     1.0920741059     -2.4225601703
C     2.8501155581     -0.2267259183     -2.1941985097


