60

 C     0.6732853909     -4.3816103675     0.2977165337
C     0.0310379603     -4.1889562467     -0.9377076662
C     -1.3737520308     -3.8355692747     -0.655820611
C     -0.2673090302     -3.9989987667     1.3796256911
C     -1.5067253958     -3.6884259066     0.7769793047
C     0.3814756651     -3.0357175145     2.2136154407
C     1.8841960439     -3.7383650339     0.5293700002
C     1.7467438252     -2.9800043713     1.7958016799
C     2.4659510612     -2.8709598946     -0.4300029061
C     0.5436973991     -3.2753029787     -1.8926033046
C     1.7852813052     -2.5741711374     -1.6660498416
C     -1.7820618091     -2.8168162037     -1.5124461545
C     -0.6184927378     -2.5066691394     -2.3640370627
C     -2.636839455     -1.7412499578     -1.0575890202
C     -2.2215392634     -2.5768377114     1.2454526353
C     -2.9546110465     -1.7394893937     0.3296512877
C     -0.2764595667     -1.7934426665     2.5872835434
C     -1.6527174162     -1.6914088434     2.2391320357
C     0.4945667435     -0.5462345982     2.6804815861
C     2.408413239     -1.771905592     1.6764258471
C     3.0196875403     -1.7574064739     0.3373669181
C     1.8660150413     -0.5487823224     2.2146700637
C     3.2815748728     -0.5640902221     -0.2535221643
C     1.9318443728     -1.2085351526     -2.2268139027
C     2.8159852332     -0.2830908614     -1.6090445893
C     -0.4727412837     -1.2508000697     -2.8718402984
C     0.829517334     -0.6117271964     -2.9172448425
C     -2.5776780734     -0.441790756     -1.7626612313
C     -1.4897919782     -0.2241505547     -2.6870135619
C     -3.1067515664     0.7076303198     -1.1469929278
C     -3.1999122638     -0.4862287128     1.0017536038
C     -2.3150660943     -0.4110183331     2.1293502726
C     -3.4776879775     0.6567482525     0.2672513426
C     -0.2237043745     0.7451168328     2.7523932132
C     -1.6670445986     0.8019539871     2.476019703
C     0.5106022136     1.9382886391     2.5874376757
C     2.4834997809     0.6763205776     1.7449259627
C     3.2136560936     0.6532102811     0.5142799493
C     1.8749443045     1.9191363652     2.0943391914
C     2.6472055588     1.1342890304     -1.6953232183
C     3.0806632998     1.7286818686     -0.4270545625
C     0.5979799479     0.790220477     -2.9239225265
C     -0.8503577075     1.0269152863     -2.8087799526
C     1.5245747518     1.7112790541     -2.369575577
C     -2.5677386999     2.0416415987     -1.4018954289
C     -1.3623894479     2.2076529368     -2.1754124625
C     -3.1499539345     1.8949065082     0.8423823011
C     -2.2324040588     2.0008974707     1.9089460209
C     -2.7206066141     2.8089132749     -0.2163143501
C     -0.1038188722     3.1785816101     2.0788781728
C     -1.4074158701     3.175949724     1.6377124688
C     -1.7187740312     3.6606842613     0.2682170112
C     2.1153509772     3.0833491199     1.3223770781
C     2.6000548391     2.967616666     -0.0203199505
C     0.8961271244     3.8652395554     1.2875319239
C     1.0213801303     2.9889111464     -1.9025394965
C     -0.4426635983     3.2244143372     -1.788519443
C     -0.6536075884     4.0057848728     -0.5985147615
C     1.6691532076     3.6833574464     -0.8750175474
C     0.6361510275     4.2620644533     -0.0227889963


