60

 C     -2.595651126     -2.9626956482     -0.5197541723
C     -3.4486368847     -1.8853581883     -0.5302236581
C     -3.6035398694     -1.3871515097     0.8454292421
C     -2.1162898986     -3.1284448035     0.8650846675
C     -2.61666791     -2.0409672944     1.653675443
C     -0.7790626474     -3.4777276953     0.8563933131
C     -1.4615746882     -3.0038376492     -1.3703712532
C     -0.3853815598     -3.5906982766     -0.5569848062
C     -1.1584313437     -1.9316068706     -2.2459382601
C     -3.2177561646     -0.7789240158     -1.4032545435
C     -2.0815065302     -0.7661719775     -2.2687122868
C     -3.673752068     0.0063596841     0.7759295771
C     -3.5615423581     0.4146990243     -0.6340797951
C     -2.9879410502     0.7603937187     1.7421838144
C     -1.6696071666     -1.2630321694     2.4220417715
C     -1.978611365     0.1249654595     2.5607100914
C     0.1608983972     -2.9034068343     1.7984509585
C     -0.2530627609     -1.6918974573     2.5153711275
C     1.5303675065     -3.10879321     1.4565269732
C     0.9310680575     -3.4983290305     -0.9223296481
C     1.9146966291     -3.4957018428     0.1012896769
C     0.2774977064     -1.7341259362     -2.5819718223
C     1.2965920488     -2.5315457414     -1.9605785762
C     0.7019030167     -0.4927010074     -3.0665052084
C     -1.567239682     0.549652244     -2.6695893085
C     -0.2374377832     0.6374725073     -3.1995176122
C     -2.9999446513     1.6305660765     -0.9420508367
C     -2.0717642683     1.7391957906     -2.0488390752
C     -2.5292011058     2.0903847173     1.4286655832
C     -2.5747359302     2.5498711972     0.1047898036
C     -0.9652622962     1.1155924967     2.8547792353
C     -1.3558546924     2.3609481194     2.2279610959
C     0.75506063     -0.6871658096     2.8377084565
C     0.3940708872     0.7358738919     2.9767696462
C     2.4851219484     -2.1556843267     1.8665588043
C     2.1167024668     -0.9626297593     2.4829336144
C     2.9681552397     -2.6398979603     -0.3457114823
C     2.5603818189     -1.9772078748     -1.5654231566
C     3.3993044183     -1.8548132835     0.7256507671
C     1.9921603515     0.051174871     -2.7078941618
C     2.8302802043     -0.5783062393     -1.745274802
C     0.4963639789     1.8221989222     -3.1057126202
C     1.8522655026     1.4601612287     -2.7054715265
C     -1.2227908144     2.8869925472     -1.7929134444
C     -1.4902833475     3.3468024371     -0.4336510318
C     0.0773507485     2.9149923878     -2.3000983721
C     -0.3886818778     3.2580627014     1.7624839995
C     -0.4367177254     3.7470361054     0.385892784
C     1.3634955025     1.7477178601     2.633187028
C     0.963415732     2.9709976876     2.0802268003
C     2.9513901505     0.0830210788     1.8522802873
C     3.5315432382     -0.4692473365     0.6218169033
C     3.3362121982     0.2358409245     -0.6313746447
C     2.593486015     1.3785004295     1.9165448288
C     2.2762717012     2.2662704696     -1.6428934362
C     1.1942515694     3.25207539     -1.4215093332
C     0.9386123064     3.7160449079     -0.137524573
C     1.7947071881     3.2527399701     0.9071059522
C     2.9916257756     1.6507381294     -0.5485546913
C     2.7536767313     2.2407266725     0.746265793


