60

 C     0.4901272534     4.2908550889     -0.4401631611
C     -0.643426086     4.1790255806     0.3997128986
C     -1.7206773738     3.6882161763     -0.3979004668
C     0.1668700037     3.6694031651     -1.7580927543
C     -1.1489691228     3.2237062744     -1.6661408297
C     1.2220201474     2.7355913907     -2.0703027852
C     1.6964515919     3.7738414794     -0.0244209359
C     2.2532724705     2.9443578593     -1.1182299598
C     1.8411060447     3.0490574759     1.2000074528
C     -0.5837690022     3.4161304736     1.6275171102
C     0.668924164     2.8435875465     2.0471070317
C     -2.4729295587     2.7928574111     0.3861036073
C     -1.7873174451     2.604037694     1.6712298928
C     -3.0529846732     1.6948979019     -0.2320311407
C     -1.510132509     1.9146987918     -2.1865688741
C     -2.6391712623     1.3093981377     -1.5976411271
C     0.9488122091     1.3927281383     -2.5390805711
C     -0.4565840168     1.0399592692     -2.7383715418
C     1.9170038864     0.3467070183     -2.2497205584
C     2.9126154709     1.8645090902     -0.5560522353
C     2.6955277266     1.9365278328     0.902881823
C     2.9192508421     0.6094698886     -1.214937428
C     2.6815823505     0.7298150706     1.6570440073
C     0.5986102443     1.5957099901     2.7350277442
C     1.6458229587     0.5736469176     2.6198998571
C     -1.8365356245     1.3400434882     2.3027181729
C     -0.6283680623     0.911887456     2.9425065753
C     -3.3386933616     0.499495039     0.4915344609
C     -2.7401069304     0.2903616171     1.7834039515
C     -2.8993327866     -0.091707293     -1.7246372064
C     -3.4254409584     -0.5835437183     -0.4702124508
C     -0.7744154025     -0.3281116196     -2.9142425142
C     -2.0156803727     -0.8873350269     -2.4492856556
C     1.5840603584     -1.060940043     -2.5264540053
C     0.2309390801     -1.3647084268     -2.8547888378
C     2.3463756411     -2.1169823005     -1.9072139007
C     3.4008467113     -0.470770432     -0.4230767524
C     3.1922380364     -0.4364946832     1.0417283291
C     3.2853286328     -1.7831851818     -0.8501743145
C     2.7652029089     -1.7468213442     1.4316043761
C     2.9938364594     -2.6146173551     0.2985039191
C     1.0941708645     -0.7181857124     2.8687597063
C     -0.3201666089     -0.5060176429     3.1106565778
C     1.5836808536     -1.9010667489     2.2294013483
C     -2.4998352535     -1.0643956133     2.1528990968
C     -1.2337989455     -1.461571881     2.7761836054
C     -3.1859675289     -1.904482071     -0.0878298201
C     -2.8229852189     -2.120623043     1.2682157301
C     -1.7746015997     -2.2715030827     -2.0646231754
C     -0.4078360739     -2.5951146911     -2.4152165498
C     -2.3686196774     -2.7919258887     -0.9152568483
C     1.7119819381     -3.3265705008     -1.5065328192
C     2.0374847411     -3.532690996     -0.0881171345
C     0.3220369483     -3.5039704375     -1.6378304955
C     0.5965914624     -2.9560665152     1.8519905061
C     -0.7723802365     -2.7339004553     2.187468101
C     -1.8056155106     -3.1536506271     1.318725005
C     -1.5420944635     -3.5973796618     -0.0059145861
C     0.8303059846     -3.7291158834     0.6551904156
C     -0.2246422191     -3.9070742867     -0.3269598666


