60

 C     -2.189748922     -3.6743033023     0.3409777572
C     -1.0182862893     -3.9667414017     1.0530642365
C     0.0258331861     -4.1551562538     0.0728097189
C     -1.8250387224     -3.4546914956     -1.1033734951
C     -0.4515561914     -3.6704718376     -1.2202183104
C     -2.4282043088     -2.2322664158     -1.5383512425
C     -2.9937868385     -2.6355050832     0.7363677107
C     -3.2848900942     -1.8270818985     -0.4677066186
C     -2.5683753122     -1.7130824508     1.7466099023
C     -0.519865044     -3.0397774825     2.0324893043
C     -1.2634777733     -1.8525420193     2.3658480648
C     1.2319715757     -3.6741088315     0.5840207727
C     0.9218587953     -2.9405108492     1.8126233664
C     2.1729844565     -3.1542246179     -0.3210489871
C     0.3610218338     -2.7384838395     -1.9951809944
C     1.7300708186     -2.6778492669     -1.6487282855
C     -1.6865352847     -1.2249207094     -2.2582799734
C     -0.2897693685     -1.5376745093     -2.5803810888
C     -2.104657832     0.1674127504     -2.1200575682
C     -3.3909519246     -0.4993263741     -0.1140597533
C     -2.9780407385     -0.4100308911     1.2932650008
C     -3.0023549625     0.5083644774     -1.0298739053
C     -2.4010153384     0.7696455584     1.7778779782
C     -0.533904495     -0.6250937962     2.7348015694
C     -1.2078826595     0.6735462731     2.6167443909
C     1.6444325696     -1.7840264832     2.153007144
C     0.9223679359     -0.649218427     2.7453350815
C     3.0808049634     -2.2140170653     0.1696715507
C     2.8352225103     -1.5075839946     1.3725462168
C     2.5339986617     -1.5091960586     -1.964507382
C     3.4007767276     -1.2314177217     -0.8731657501
C     0.546323218     -0.4543572079     -2.9473286001
C     1.9400075587     -0.4233555641     -2.5913875719
C     -1.2445330334     1.2560871424     -2.6144666953
C     0.0788429049     0.9082372839     -2.974829075
C     -1.4558938719     2.6233967266     -2.1877517672
C     -2.9478215322     1.8019643752     -0.4426899951
C     -2.6265868778     1.9304709016     0.9748236848
C     -2.3786905816     2.8873967714     -1.1198830992
C     -1.8568683245     3.1515435036     1.1341986535
C     -1.7659793764     3.7879245771     -0.1604433586
C     -0.4615655959     1.8791106545     2.7454456456
C     -0.7456752023     3.099886933     1.9621963756
C     1.6209619736     0.591474677     2.7770094246
C     0.9302422727     1.7964507291     2.8806299273
C     3.2774609965     -0.1419479185     1.1291534614
C     3.5216490252     0.0451987359     -0.315116536
C     2.7348217025     0.8673946374     1.854293531
C     2.2770421853     0.9337042169     -2.1957045949
C     1.1974779694     1.7710550113     -2.6151643009
C     2.98795505     1.2002189307     -0.9827969721
C     -0.3441206398     3.5058304716     -1.9702293163
C     -0.5233117979     4.151379098     -0.6756274275
C     0.9704512534     2.999196362     -1.9960455241
C     0.5423454207     3.6330830013     1.466234426
C     1.5511715778     2.8234638543     2.0190538375
C     2.5515873935     2.2024046832     1.2648214795
C     2.5741383898     2.3630942251     -0.1761674537
C     0.6740000777     3.9928421316     0.1037368398
C     1.6515660291     3.2971851732     -0.7190917101


