60

 C     -2.121843232     -3.4801102859     1.3283947394
C     -0.8294449376     -3.9443550141     0.9216817606
C     0.1705460771     -3.2879137134     1.6790875175
C     -1.9668260609     -2.4477473154     2.2681748029
C     -0.5497567527     -2.251304743     2.4616403025
C     -2.7316926781     -1.3072890706     1.8396385132
C     -2.7816294177     -2.9041148583     0.1817694265
C     -3.2955727638     -1.6189507616     0.5422326711
C     -0.7643369976     -3.826180528     -0.5191536909
C     -1.9216006812     -3.0091042091     -0.9420384914
C     0.4543312752     -3.6138712882     -1.0848947464
C     1.4484063398     -3.0310958322     1.1078578025
C     1.6454169845     -3.4991340694     -0.2496732234
C     2.1744304936     -1.8490281122     1.5666681587
C     -0.0024218732     -0.9642420034     2.6222518873
C     1.4400263382     -0.8249718676     2.3622184584
C     -2.2674160031     0.0050238263     2.1067456449
C     -0.8904169152     0.2173032499     2.5699109291
C     -2.8964710381     1.0184013771     1.3471988364
C     -3.4214698077     -0.610245312     -0.4322204281
C     -3.578275615     0.7016038942     0.1155054841
C     -1.7482935659     -1.8761903193     -1.8265669933
C     -2.6644428133     -0.7542772732     -1.6794307042
C     0.5975415188     -2.6337889147     -2.1788306557
C     -0.4283571363     -1.650208761     -2.4085218826
C     2.6110535376     -2.8581172452     -1.0577507361
C     1.9291803473     -2.2625804569     -2.2293768676
C     3.2701566446     -1.3930507311     0.7765156408
C     3.4562024036     -1.905161565     -0.5484443233
C     3.603951864     0.0176933655     0.7199544316
C     1.964950211     0.4612569635     2.4739985708
C     3.1075199918     0.8735523092     1.672076347
C     -0.329584589     1.5431903506     2.4804001889
C     1.1057839692     1.6440416018     2.5994403593
C     -2.3366308988     2.3645764648     1.2451551337
C     -1.043925885     2.6418202976     1.8057087666
C     -3.4418046622     1.8470527209     -0.7062502092
C     -2.7563972272     2.9286329548     0.0294955484
C     -2.3152652055     0.449429669     -2.3550346653
C     -2.845122964     1.7240446814     -1.9454746269
C     0.0200906101     -0.2900356292     -2.7287309237
C     -0.9666423619     0.7013036703     -2.7519293615
C     2.3717961474     -0.8913954539     -2.3727416971
C     3.4278950314     -0.7241137701     -1.4377756972
C     3.5582228797     0.4414687019     -0.6874993967
C     1.417790629     0.1415692319     -2.5488231855
C     2.8315736449     1.6182400712     -1.0649288704
C     1.7207784899     1.4795336135     -2.0048516634
C     2.9237633606     2.2346097685     1.3174876995
C     1.7914859828     2.7655962503     2.0644570991
C     2.7639845398     2.6334536767     -0.0429802551
C     -0.284620715     3.6443864026     1.1040614217
C     1.1271490347     3.6959884763     1.2577112872
C     1.7234673244     3.60758496     -0.058420039
C     -1.7854956639     3.5150411576     -0.8420803688
C     -1.8126994808     2.7622697088     -2.0757724247
C     -0.6446338312     2.1183775017     -2.4947304655
C     0.658081555     2.4824293805     -1.9793956793
C     -0.5671393622     3.887385666     -0.3061286172
C     0.67465381     3.5417171397     -1.0069886401


