60

 C     1.8921272066     3.9043080257     0.0642709536
C     0.5684475571     4.244450785     0.3779007483
C     -0.2150095025     4.0620197675     -0.8325381066
C     1.9110765352     3.3125770198     -1.3197475916
C     0.5990544546     3.3403395218     -1.8022346386
C     2.678938901     2.1054041502     -1.3038395959
C     2.5639325772     3.0299785269     0.8801327658
C     3.2146529833     2.0171752942     0.0198485333
C     1.9030830957     2.3221257321     1.9415388948
C     -0.126859796     3.6114383951     1.4559023308
C     0.5056774318     2.5529304283     2.2194243793
C     -1.496142079     3.6181806023     -0.4903200549
C     -1.4927675385     3.4167948637     0.9717435565
C     -2.1174369878     2.6592979699     -1.3075057578
C     0.0587609512     2.1635996024     -2.462228523
C     -1.3398024777     1.9655981272     -2.336596459
C     2.2173348407     0.9082141783     -1.9544236103
C     0.9305356044     0.9829698557     -2.6410964519
C     2.6593775393     -0.3760244482     -1.4179747761
C     3.2273501176     0.8140785655     0.6816368005
C     2.3914379821     0.9779708408     1.897574947
C     3.1733462987     -0.386372456     -0.0594107803
C     1.6568709465     -0.126025357     2.3786752208
C     -0.3032160911     1.3998345427     2.6660300556
C     0.2632946864     0.0454759771     2.7681409306
C     -2.2808180499     2.4444638536     1.5104168643
C     -1.7178155803     1.5034941057     2.4898808466
C     -3.0397007297     1.7177738135     -0.7477533282
C     -3.208803785     1.6869947351     0.6574813425
C     -1.9250012726     0.65925855     -2.4816141167
C     -2.949964566     0.4657041105     -1.4808167734
C     0.299139511     -0.2419894942     -2.9567152922
C     -1.1251467657     -0.3985159362     -2.8666342467
C     2.0729624262     -1.6316218895     -1.8977279786
C     0.8851719626     -1.5305632786     -2.6648205373
C     2.2633437074     -2.8665998118     -1.1420615058
C     2.9874896291     -1.526729166     0.7603123535
C     2.1351590993     -1.3947734297     1.9575035805
C     2.7762130716     -2.7782424069     0.2153979566
C     1.3714276042     -2.6045254138     2.0704126829
C     1.899546254     -3.5269814782     1.0939238355
C     -0.576985114     -1.148757538     2.6868828873
C     -0.0393141929     -2.4718164137     2.2869545548
C     -2.5001006744     0.3419973648     2.4205448542
C     -3.413846002     0.4410586044     1.2658170963
C     -1.9723142541     -0.9472056821     2.4783425252
C     -3.1013924995     -0.8059580256     -0.8567038516
C     -3.3648014028     -0.7766699929     0.5665686788
C     -2.6718821689     -1.7185824269     1.438198417
C     -1.4155129879     -1.7500216639     -2.4291795258
C     -0.1942156073     -2.5029210964     -2.5196137865
C     -2.3771226474     -1.9652839881     -1.3938765976
C     1.2770142975     -3.8839258756     -1.1409814479
C     1.039559381     -4.2574698877     0.2748656305
C     -0.0029331119     -3.6442314537     -1.7274166295
C     -0.8912563031     -3.3803636461     1.5303843071
C     -2.1109180044     -2.8456261054     0.9386788039
C     -2.0951339996     -3.0756764875     -0.514565762
C     -0.3365497349     -4.2165273228     0.5292838024
C     -1.0195621267     -3.9355060373     -0.7462733111


