60

 C     -1.3657500689     -3.6491681044     1.7669759779
C     0.0396343339     -3.6471350987     1.7914235426
C     0.5138462063     -2.5057613013     2.5369583918
C     -1.8079563275     -2.4565421187     2.3948562278
C     -0.6770810512     -1.7333983429     2.907342027
C     -2.6982037866     -1.7608250481     1.5257368179
C     -1.7839402616     -3.5592687215     0.3762063748
C     -2.6713847566     -2.4447649258     0.2367294377
C     0.505014081     -3.8322345016     0.4271628173
C     -0.6647367269     -3.6575627521     -0.4788936027
C     1.7154036496     -3.316758969     0.0842633767
C     1.6947869012     -1.8399354112     2.1278335028
C     2.4259697467     -2.4357790355     1.0229977199
C     1.8213722943     -0.4060649193     2.3680894318
C     -0.6588817915     -0.3285994638     2.8988655752
C     0.6588817915     0.3285994638     2.8988655752
C     -2.7873433526     -0.3545159357     1.5892672242
C     -1.8213722943     0.4060649193     2.3680894318
C     -3.3722326852     0.2444875305     0.4229571045
C     -2.6870548809     -1.7038020629     -0.9726079859
C     -3.2521278248     -0.4015777485     -0.8615534579
C     -0.5473167785     -2.8600221458     -1.6706750239
C     -1.6602887345     -1.9638876048     -1.9954317721
C     1.9327726422     -2.8066683118     -1.27460004
C     0.8115422507     -2.5388278379     -2.1429584113
C     3.2358272577     -1.6328640049     0.2199586758
C     3.0031810462     -1.906225631     -1.1979068614
C     2.7873433526     0.3545159357     1.5892672242
C     3.3722326852     -0.2444875305     0.4229571045
C     2.6982037866     1.7608250481     1.5257368179
C     0.6770810512     1.7333983429     2.907342027
C     1.8079563275     2.4565421187     2.3948562278
C     -1.6947869012     1.8399354112     2.1278335028
C     -0.5138462063     2.5057613013     2.5369583918
C     -3.2358272577     1.6328640049     0.2199586758
C     -2.4259697467     2.4357790355     1.0229977199
C     -2.9920385201     0.6450230111     -1.8541781545
C     -3.0031810462     1.906225631     -1.1979068614
C     -1.4284890853     -0.9191214057     -2.9461889212
C     -2.0328853706     0.4121343136     -2.8120871649
C     0.9839944898     -1.4221561466     -3.0195566101
C     -0.145531894     -0.719195984     -3.4709862198
C     2.9920385201     -0.6450230111     -1.8541781545
C     3.2521278248     0.4015777485     -0.8615534579
C     2.0328853706     -0.4121343136     -2.8120871649
C     2.6713847566     2.4447649258     0.2367294377
C     2.6870548809     1.7038020629     -0.9726079859
C     1.3657500689     3.6491681044     1.7669759779
C     -0.0396343339     3.6471350987     1.7914235426
C     1.7839402616     3.5592687215     0.3762063748
C     -1.7154036496     3.316758969     0.0842633767
C     -1.9327726422     2.8066683118     -1.27460004
C     -0.505014081     3.8322345016     0.4271628173
C     0.6647367269     3.6575627521     -0.4788936027
C     -0.9839944898     1.4221561466     -3.0195566101
C     0.145531894     0.719195984     -3.4709862198
C     1.4284890853     0.9191214057     -2.9461889212
C     1.6602887345     1.9638876048     -1.9954317721
C     -0.8115422507     2.5388278379     -2.1429584113
C     0.5473167785     2.8600221458     -1.6706750239


