60

 C     -3.9731866516     -0.6666017218     -0.2860178003
C     -3.6505763278     -0.0303732082     -1.4659787538
C     -3.5271820557     1.3965671721     -1.2173216003
C     -3.8349962624     0.3355444342     0.7970730663
C     -3.5242519541     1.5947491932     0.2088834531
C     -3.0001375205     -0.2429597613     1.7579090446
C     -3.3200767982     -1.8644795407     0.0881802767
C     -2.8963752791     -1.6740789444     1.4580640622
C     -2.427796636     -2.5388595059     -0.8191509048
C     -2.4904797372     -0.4758053962     -2.2225649294
C     -1.8702637614     -1.7333715115     -1.9255932884
C     -2.4170807016     1.8472457946     -1.9561447613
C     -1.7276336606     0.6867336118     -2.5473705838
C     -1.6740789444     2.8963752791     -1.4580640622
C     -2.5388595059     2.427796636     0.8191509048
C     -1.8644795407     3.3200767982     -0.0881802767
C     -1.8558881909     0.4691037441     2.2866939985
C     -1.7333715115     1.8702637614     1.9255932884
C     -0.6607217522     -0.3064213739     2.6442066171
C     -1.8472457946     -2.4170807016     1.9561447613
C     -0.6867336118     -1.7276336606     2.5473705838
C     -1.5947491932     -3.5242519541     -0.2088834531
C     -1.3965671721     -3.5271820557     1.2173216003
C     -0.3355444342     -3.8349962624     -0.7970730663
C     -0.4691037441     -1.8558881909     -2.2866939985
C     0.2429597613     -3.0001375205     -1.7579090446
C     -0.3064213739     0.6607217522     -2.6442066171
C     0.3064213739     -0.6607217522     -2.6442066171
C     -0.2429597613     3.0001375205     -1.7579090446
C     0.4691037441     1.8558881909     -2.2866939985
C     -0.6666017218     3.9731866516     0.2860178003
C     0.3355444342     3.8349962624     -0.7970730663
C     -0.4758053962     2.4904797372     2.2225649294
C     -0.0303732082     3.6505763278     1.4659787538
C     0.6607217522     0.3064213739     2.6442066171
C     0.6867336118     1.7276336606     2.5473705838
C     1.8558881909     -0.4691037441     2.2866939985
C     0.4758053962     -2.4904797372     2.2225649294
C     0.0303732082     -3.6505763278     1.4659787538
C     0.6666017218     -3.9731866516     0.2860178003
C     1.7333715115     -1.8702637614     1.9255932884
C     1.6740789444     -2.8963752791     -1.4580640622
C     1.8644795407     -3.3200767982     -0.0881802767
C     2.5388595059     -2.427796636     0.8191509048
C     1.7276336606     -0.6867336118     -2.5473705838
C     2.4170807016     -1.8472457946     -1.9561447613
C     1.8702637614     1.7333715115     -1.9255932884
C     2.4904797372     0.4758053962     -2.2225649294
C     1.5947491932     3.5242519541     -0.2088834531
C     1.3965671721     3.5271820557     1.2173216003
C     1.8472457946     2.4170807016     1.9561447613
C     2.427796636     2.5388595059     -0.8191509048
C     3.0001375205     0.2429597613     1.7579090446
C     2.8963752791     1.6740789444     1.4580640622
C     3.3200767982     1.8644795407     0.0881802767
C     3.5242519541     -1.5947491932     0.2088834531
C     3.5271820557     -1.3965671721     -1.2173216003
C     3.6505763278     0.0303732082     -1.4659787538
C     3.8349962624     -0.3355444342     0.7970730663
C     3.9731866516     0.6666017218     -0.2860178003


