60

 C     0.1120869201     4.4501418959     0.0624285517
C     1.2287143629     4.022466545     0.7415253059
C     0.7888512782     3.2826336611     1.9546094821
C     -1.0654581168     4.060819182     0.8847142104
C     -0.621167785     3.2109041493     1.9775919052
C     -2.0346207152     3.6041784003     0.0368109723
C     -0.1264966276     3.9996997079     -1.2975271993
C     -1.4886303235     3.575805027     -1.3501886099
C     0.8395592039     3.1749148686     -1.9191659492
C     2.2564819175     3.24890427     0.1166231505
C     2.0837544422     2.8731154217     -1.2370895719
C     1.6285564589     2.1622175819     2.1232602685
C     2.6432603984     2.2174388304     1.0711161133
C     1.0826411272     0.9184488183     2.5489148019
C     -1.2406525317     1.9385088075     2.2241994694
C     -0.371207989     0.8527276512     2.7055818322
C     -2.7282796906     2.3853906355     0.2905404414
C     -2.4192705904     1.5734620472     1.4321976454
C     -1.8751859206     2.3585291845     -1.9099680136
C     -2.8367262373     1.737493385     -0.992530737
C     0.4285168199     1.9462986794     -2.5916744318
C     -0.9142010739     1.4900428356     -2.5723544781
C     2.5223452412     1.5573903457     -1.6604873455
C     1.50889746     0.9764656526     -2.5187724509
C     3.1799620728     1.0335871065     0.6347909254
C     3.2083508222     0.7229481891     -0.7855731071
C     1.8474432174     -0.3103740819     2.2667904114
C     2.9085592935     -0.1981117327     1.3315863298
C     1.2234927712     -1.6272097097     2.439960046
C     -0.9311617907     -0.4339812892     2.8417780517
C     -0.1474561486     -1.6401578869     2.8556271201
C     -2.8425838969     0.1814086586     1.3764023451
C     -2.2567095795     -0.7423312975     2.2879120815
C     -3.0670479965     0.3940067385     -1.0720513959
C     -3.2977452608     -0.3799530304     0.1363318677
C     -1.1669502333     0.0496449389     -2.6328000824
C     -2.3717216967     -0.4334701893     -2.0151690633
C     1.3024283124     -0.4148404089     -2.5963635923
C     -0.0738015315     -0.8938686703     -2.7866505485
C     3.1176038377     -0.6951042598     -0.9281791236
C     3.160028056     -1.278281922     0.4010408213
C     2.283983667     -1.292932053     -1.9257884805
C     1.6872727147     -2.7546351515     1.6951419716
C     2.6550269447     -2.5424384217     0.6310337598
C     0.7665265813     -3.7870578777     1.2107232243
C     -1.006605465     -2.6982925086     2.4280848941
C     -2.2901983637     -2.1219438071     2.0390315472
C     -0.6164609858     -3.6794771898     1.50896412
C     -3.0997706025     -1.7568546271     -0.1956010826
C     -2.5120118899     -1.7852470362     -1.5389616861
C     -2.6290718475     -2.6582004508     0.7695548577
C     -1.6267511396     -3.6752768176     0.4198268373
C     -0.33972137     -2.2796030289     -2.5316636748
C     -1.5534998258     -2.7188781411     -1.8502793386
C     -1.1831151819     -3.7846222465     -0.8961536189
C     1.9772916652     -2.6672060238     -1.7194133814
C     2.2850942764     -3.3266944964     -0.5012401562
C     1.1392998012     -4.1361428499     -0.1185139121
C     0.6799952608     -3.1743813144     -2.1365127567
C     0.1882575828     -4.1120246949     -1.1640219738


