60

 C     0.5650396726     4.824387951     0.5290369027
C     1.3135409997     4.5152787545     -0.6786435949
C     0.40271225     3.9966480646     -1.6822458721
C     -0.8006536806     4.4506992477     0.2660863501
C     -0.9296567622     4.0130456055     -1.1173847612
C     -1.2743713619     3.5637821442     1.2875256219
C     1.0243761101     3.9351749357     1.5209785389
C     -0.096125257     3.1984830194     2.0677804114
C     2.2863432006     3.5469826508     -0.4362276976
C     2.111527789     3.1313541489     0.9662968707
C     0.9260424841     2.7895991103     -2.2330718991
C     2.1425981617     2.5107614514     -1.4596062992
C     0.0627530595     1.693083991     -2.5339512408
C     -1.7743254585     2.9453996744     -1.4202963841
C     -1.3289591801     1.8614156653     -2.2718534961
C     -2.2506052914     2.5644619331     0.9808418514
C     -2.6019403551     2.3388005888     -0.3948008811
C     -2.2637521013     1.4069811316     1.8176966709
C     0.0692771232     1.8670520057     2.5041971559
C     -1.1049075926     1.0668221513     2.594093215
C     2.2396567356     1.7852405173     1.2924797955
C     1.3140136626     1.1393081111     2.2415311939
C     2.4706554221     1.2134073529     -1.1597555672
C     2.7990522293     0.9125164203     0.2523005748
C     0.6069928302     0.3232581062     -2.5256822244
C     1.8812003054     0.102754819     -1.9253259339
C     -0.2964009391     -0.8206889862     -2.6574215937
C     -2.1330804508     0.7129332631     -1.9736389038
C     -2.9388143873     1.0163513822     -0.8246168979
C     -1.7168073444     -0.6164986057     -2.2804683731
C     -2.9245896273     0.1732495551     1.4493618619
C     -3.2690687014     -0.0363183668     0.083045941
C     -1.0658864421     -0.3600183585     2.7498028091
C     -2.2919566463     -0.8949986703     2.1764564241
C     1.3552365762     -0.2782430893     2.4059654362
C     0.1371499188     -1.0816855403     2.6712708429
C     3.0312391693     -0.3848774981     0.5776269627
C     2.4452827939     -0.9742101665     1.7795506914
C     2.3601230473     -1.2400473293     -1.6534456186
C     3.105803273     -1.4453860403     -0.4305205085
C     0.2322470241     -2.1140726752     -2.5740527875
C     1.609753987     -2.3438112538     -2.1542795481
C     -0.5706651887     -3.2349301776     -2.0642313161
C     -2.4316879357     -1.6609432183     -1.6672611605
C     -3.1985034535     -1.3651500648     -0.4339016502
C     -1.8614476904     -2.9850510692     -1.5464756315
C     -2.3256921136     -2.1960445377     1.7059538381
C     -2.9345592454     -2.4308453485     0.4319686433
C     -2.1822179801     -3.4742036799     -0.2468368938
C     0.0776316296     -2.517530425     2.2737783308
C     -1.1473115395     -3.0453793985     1.7936253101
C     -1.1632427753     -3.9403926343     0.6136049692
C     2.4586184359     -2.3529598936     1.6014144658
C     3.012757738     -2.6608121652     0.2623611826
C     1.2940732324     -3.1638483573     1.7941259988
C     1.6599892329     -3.6255391522     -1.5003155878
C     0.2889451744     -4.1053438625     -1.3620075117
C     0.0488355765     -4.3886267741     0.0381969435
C     2.2885368638     -3.7427119539     -0.2568366796
C     1.2552235935     -4.1180643598     0.7362008095


