60

 C     -0.0491013733     -4.6279551674     -1.0265803642
C     -0.8954243655     -4.588626917     0.1714228616
C     -2.0494031379     -3.8947361764     -0.1755884196
C     -0.6166777119     -3.7892552624     -2.0654010991
C     -1.8655797902     -3.3748803916     -1.581771747
C     0.347756723     -2.7729451253     -2.4039011383
C     1.211819935     -4.1471157494     -0.6925226333
C     1.5291945458     -3.0478968776     -1.5865274064
C     -0.0866902316     -4.1162684831     1.2822394805
C     1.2678505694     -3.9114828764     0.7468859792
C     -0.6070451419     -3.1206039762     2.1288766348
C     -2.5249858968     -2.8124016759     0.6102283706
C     -1.8772845127     -2.4858158488     1.8248247799
C     -2.2512703748     -2.0312731722     -1.6084784155
C     -2.809292835     -1.7099419243     -0.2900730239
C     -0.0409952759     -1.409561896     -2.5693149213
C     -1.4207122889     -1.0358539404     -2.2351548104
C     0.9750219753     -0.3650481355     -2.4711389067
C     2.3479516077     -1.9976447839     -1.1516099183
C     2.223951628     -0.7037598827     -1.8107061934
C     2.0421481875     -2.8572335762     1.1927620017
C     2.7284577085     -2.0000139989     0.2429148088
C     0.2542230671     -2.0662739625     2.6676137363
C     1.579871342     -1.9666590412     2.2551824448
C     -1.7953284691     -1.1038953312     2.2247441789
C     -0.4916129937     -0.8422190274     2.7986852417
C     -2.8396678556     -0.3959634044     0.139385652
C     -2.4069013222     -0.0671494827     1.4906139608
C     -1.7458488373     0.3303833421     -1.9805364686
C     -2.6672282609     0.6235506218     -0.8761023147
C     0.5676529299     1.0303549939     -2.5661369654
C     -0.8420966043     1.3844019079     -2.393379836
C     1.52250026     2.0515877546     -2.2553481831
C     3.0063622181     0.3484320714     -1.2757043805
C     2.7068883968     1.6742083916     -1.5996314236
C     3.0168961402     -0.7632851228     0.8974112033
C     2.192148486     -0.673387421     2.1005441284
C     3.2975244852     0.3553717719     0.1537105345
C     0.1011803758     0.4458633782     2.7204450173
C     1.5271808155     0.5378562858     2.3848394978
C     -2.0439655734     1.2967079901     1.7944116364
C     -0.7706030889     1.5687631287     2.4423175499
C     -2.8613570739     1.9291906755     -0.4635758544
C     -2.6216602458     2.3003511689     0.9575395738
C     -1.1961771407     2.7320460892     -2.0769190472
C     -2.3216503167     2.9927282556     -1.2355663131
C     1.1282169518     3.3567732063     -1.7010224298
C     -0.1830249163     3.7533170591     -1.7284056583
C     2.8751551292     2.5402911758     -0.4212876728
C     2.9942625845     1.6704772651     0.6865536591
C     2.0379373662     1.7765644529     1.7713735369
C     1.9430181151     3.578057245     -0.4735367699
C     -0.1824742568     2.8643184626     2.2403513871
C     1.2228106307     2.9279320008     1.7837591541
C     1.2678693059     3.9198698255     0.7227626949
C     -2.1673190897     3.6405131208     1.0024349297
C     -2.0371158037     4.09176125     -0.3647062743
C     -0.7108928605     4.5463303128     -0.611314673
C     -0.9100128109     3.9029496903     1.6333705395
C     -0.0264510232     4.5081958365     0.6237379876


