60

 C     0.3098865076     -4.3313779001     0.4161755364
C     -0.4916571382     -4.1462549992     -0.7418525713
C     -1.7669298745     -3.671446899     -0.3163102068
C     -0.4128770301     -3.780408289     1.5810766132
C     -1.6298707331     -3.3003700717     1.0969674594
C     0.4877830777     -2.861500778     2.2661298192
C     1.5856643809     -3.7947721492     0.4287354076
C     1.7603337489     -3.0173572603     1.6695623989
C     2.1367656741     -3.0401910762     -0.6523106615
C     -0.0248327091     -3.3321943175     -1.8447070008
C     1.3158599132     -2.7843147458     -1.8198829371
C     -2.1941575362     -2.6964233068     -1.2425041852
C     -1.1183289234     -2.4714188     -2.2244060662
C     -2.8887422337     -1.5962234723     -0.7767452722
C     -2.144979594     -2.0263356674     1.5632782543
C     -2.9841564308     -1.335680077     0.6646730586
C     0.0686129781     -1.5566181624     2.707480923
C     -1.3459607512     -1.2204592782     2.5164435847
C     1.0512807713     -0.4762178332     2.7380547537
C     2.5604905663     -1.9125404416     1.3885699052
C     2.8408555252     -1.9354618401     -0.0523157477
C     2.3255889936     -0.6789674443     2.0444775942
C     3.0698178279     -0.7092767767     -0.7415581179
C     1.5029416773     -1.5424663687     -2.4844223013
C     2.4404769533     -0.5398521212     -2.008458055
C     -0.9332305496     -1.1847134102     -2.79791357
C     0.4132010083     -0.8128162295     -3.0618573037
C     -2.8533439528     -0.3246752056     -1.4466467605
C     -1.9017672027     -0.0962308429     -2.5020974589
C     -3.2518972523     0.0617684955     0.8057972897
C     -3.1929666237     0.7019196566     -0.5059612709
C     -1.7518214729     0.1053248735     2.7349779653
C     -2.780882243     0.7236972126     1.9231653436
C     0.5956718017     0.9048271733     2.9494075127
C     -0.7954954088     1.158148151     3.0373106828
C     1.4067769158     2.0104520719     2.4757519244
C     2.9801775003     0.4405082931     1.4513906837
C     3.2939672087     0.4541208321     0.0482865285
C     2.5934233368     1.7546105521     1.7915255513
C     3.0189259883     1.7954525424     -0.4752405517
C     2.6954360692     2.6188166911     0.6224978865
C     2.048600968     0.7717972512     -2.4814322044
C     0.7976464604     0.5861471855     -3.1561119097
C     2.307619647     1.954957584     -1.712892224
C     -1.53193805     1.2418350923     -2.7220849879
C     -0.1717646689     1.5820119918     -3.129757658
C     -2.7439720093     2.0470230279     -0.6591346658
C     -1.9899568446     2.3219635466     -1.8471050928
C     -2.4697075298     2.1197402688     1.8017158534
C     -1.339134502     2.4166961331     2.5866212387
C     -2.4178943015     2.799097687     0.5323894476
C     0.8102680299     3.2151557087     1.8376215349
C     1.5891087288     3.5032234235     0.6214650491
C     -0.5536038362     3.3628644292     1.8430199445
C     -1.2618552551     3.6562562348     0.5742449833
C     1.3333461061     3.0314762367     -1.7770847699
C     0.1613445506     2.8374258978     -2.5503035954
C     -0.9789424047     3.3193173542     -1.8125208523
C     0.9391931135     3.7850216362     -0.5826936273
C     -0.5183991666     3.8949087298     -0.5925033022


