60

 C     -0.8080578144     4.4277157864     1.2068258266
C     0.0818275796     4.5621648381     0.06943643
C     -0.6224839236     4.2003537985     -1.0954472593
C     -1.998881164     3.7581943689     0.728285175
C     -1.9326030009     3.6710739834     -0.6727097005
C     -2.1624446531     2.5134392338     1.4414345103
C     -0.177950889     3.5087585413     2.0733959
C     -1.0502449099     2.3814444848     2.3523919835
C     1.3285903059     3.8670063008     0.3589420142
C     1.1754036354     3.2206978528     1.6588484985
C     1.9513921864     3.1370142334     -0.6586118748
C     -0.0806017624     3.2805295902     -2.0397398622
C     1.2454845838     2.8606829633     -1.899121815
C     -2.1551989557     2.4378588197     -1.3461191877
C     -1.0746512943     2.2218780839     -2.2830177563
C     -2.6192241075     1.3357433172     0.8015145249
C     -2.6516247188     1.2908954809     -0.6506412209
C     -2.4181377428     0.0957584334     1.519598167
C     -0.5139432766     1.1267891687     2.6939284501
C     -1.3650516887     -0.0473012573     2.4858560609
C     1.7303395276     1.9536346384     1.9323976419
C     0.9314834458     0.9797654224     2.6972635971
C     2.6840853534     1.9402515031     -0.3396908016
C     2.6840738252     1.400035147     0.9647215457
C     1.6356200059     1.5443034205     -2.3567236153
C     2.6272235789     1.0213938869     -1.4793370727
C     -0.725267348     0.9355359015     -2.7523455798
C     0.6955932472     0.6452591831     -2.9419383694
C     -2.5554079195     0.0151276815     -1.3312057055
C     -1.6401597547     -0.1632315524     -2.4519549395
C     -2.9085650568     -1.0737337077     0.8604209724
C     -2.9369290184     -1.1272445872     -0.5956691966
C     -2.596779149     -2.3464378732     1.3422773665
C     -0.8328427385     -1.3800728991     2.7578689483
C     -1.5311518231     -2.5410254295     2.2521119114
C     1.4391644925     -0.3276223538     2.8333413444
C     0.5696023623     -1.4945974588     2.922564946
C     3.0749842065     0.0245391715     1.086262354
C     2.6555528845     -0.727125443     2.2038588399
C     2.8496661929     -0.3870064484     -1.3399436083
C     3.1908640932     -0.8699540503     -0.0464904679
C     1.0975929679     -0.7127315557     -3.0274137727
C     2.1624289976     -1.2493169199     -2.2309209495
C     -1.2371733247     -1.4924838081     -2.7847201198
C     0.1078477072     -1.7249686642     -3.1431057243
C     -2.6058320243     -2.4853247252     -1.0056575169
C     -2.4744188472     -3.271504838     0.189995932
C     -1.6929414841     -2.6683272061     -2.0396265606
C     -0.7816064277     -3.650805637     1.7023913308
C     -1.3606577361     -4.0506292998     0.4037576786
C     1.2894766435     -2.592104262     2.2897119494
C     2.5140033168     -2.0958083051     1.7966867245
C     2.763282462     -2.1788856407     0.3901646433
C     0.5962129095     -3.5892842935     1.5542354619
C     1.7692223506     -2.6095699858     -1.8255940588
C     0.5692112928     -2.9320392819     -2.4963395663
C     -0.529003229     -3.5495370731     -1.8315735597
C     -0.3007666526     -4.1277784015     -0.5677069389
C     1.974274729     -3.0544726536     -0.470030232
C     0.9460974517     -3.8369198235     0.1329063036


