60

 C     1.2902757096     4.2408025796     0.3330747606
C     -0.0480258815     4.4538515578     0.5997504328
C     -0.8308904705     4.0687157424     -0.6238383576
C     1.3819666333     3.878230722     -1.1164335686
C     0.0476206982     3.582021083     -1.6075402638
C     2.3668216935     2.956905129     -1.2531227689
C     2.0350491161     3.2543227634     1.0623558954
C     2.8973704211     2.6317184804     0.0841163677
C     1.3528464222     2.4012673813     2.0342954115
C     -0.6649322021     3.8421101625     1.6917808601
C     0.0013563784     2.7609936913     2.3692474223
C     -1.997272919     3.3617556137     -0.216754856
C     -1.9301322263     3.29450104     1.2104756698
C     -2.4284676102     2.2248092177     -0.9736805435
C     -0.2357605203     2.3047945528     -2.2613014654
C     -1.5730067414     1.753072867     -2.0844862685
C     2.1456774212     1.7119115653     -1.9551071468
C     0.8765146284     1.3725857012     -2.5162584496
C     3.1439672879     1.286304714     0.1039703902
C     2.8493072466     0.7185183936     -1.2386365722
C     1.7214055795     0.9842555496     2.1311972241
C     2.7710317586     0.4888400324     1.2464234033
C     0.7839209305     -0.0263223315     2.6142273173
C     -0.9734974372     1.7008934195     2.5801176319
C     -2.1885290115     2.0756460589     1.8666863058
C     -0.6255556193     0.3472811182     2.6904988868
C     -3.1417126312     1.2330979308     -0.2464007581
C     -2.9272735492     1.1215024111     1.1754411059
C     -3.3130056895     -0.1083902367     -0.7402761389
C     -1.7995509887     0.4465357991     -2.563626924
C     -2.8123959922     -0.4458440438     -1.9919195265
C     0.6298476819     -0.0493300988     -2.7450379221
C     -0.713183955     -0.407460786     -3.0040088656
C     2.6101735859     -0.6550573978     -1.394657229
C     1.5333041364     -1.1017930314     -2.2477948746
C     2.9586522626     -0.8717426374     1.067981995
C     3.0744298     -1.4527235786     -0.2926008966
C     1.1213910931     -1.4519700749     2.5596205132
C     2.3340822847     -1.8559519396     1.9027470236
C     0.0456033673     -2.4277112852     2.5451614548
C     -1.6540953225     -0.6528277925     2.3210467763
C     -2.7548141092     -0.2647784975     1.4929346789
C     -3.1665144486     -1.0563363774     0.3588868634
C     -1.2876453382     -2.0024693138     2.2524512412
C     -2.6682297415     -2.365049064     0.1680197386
C     -1.886678101     -2.9135649453     1.2512909874
C     -2.4119098676     -1.7914305868     -2.2213761275
C     -1.1370553585     -1.7536705326     -2.8529062524
C     -2.3171973654     -2.765908162     -1.178504694
C     1.0604634031     -2.4849370922     -2.0629271244
C     -0.2980129456     -2.7893144398     -2.3345516105
C     -1.1166885465     -3.5552535304     -1.3992148921
C     2.7305251067     -2.7808074767     -0.1985804338
C     2.4183911696     -3.0986752605     1.1909548633
C     1.7043101796     -3.3409871947     -1.0610466869
C     0.1994264271     -3.6972261159     1.8803087608
C     -0.9704316132     -3.9375195185     1.0262710253
C     -0.4950380492     -4.1910695057     -0.3170698016
C     1.3485452191     -3.9865550562     1.1564194462
C     0.9332268097     -4.2145677733     -0.268093334


