60

 C     0.8303799417     -4.0771873241     0.1060586463
C     0.4496492353     -3.7578105045     1.3774115905
C     1.4922141335     -2.9397208946     2.0117461941
C     2.1899602691     -3.4992283721     -0.1060276242
C     2.4908157171     -2.6358275154     1.0072500509
C     2.2143963868     -3.0025713699     -1.3816023048
C     -0.0100590456     -3.7427363828     -1.0295770833
C     0.8662900957     -3.1879277883     -1.9881896353
C     -1.2959415624     -3.1304041882     -0.8352952476
C     -0.8384072674     -3.1627444658     1.6289658112
C     -1.7680317714     -2.975535353     0.5550487011
C     0.8330458474     -1.9248048845     2.6865399448
C     -0.6189099418     -2.1169761409     2.580445139
C     1.3886952283     -0.5950206072     2.7143884253
C     2.8972505185     -1.2871551112     0.7844241533
C     2.4986258624     -0.2880835545     1.7995813208
C     2.6602187205     -1.6879160458     -1.6666640443
C     3.0608296308     -0.8179757758     -0.6006030231
C     0.5660162314     -2.0415785171     -2.7341465395
C     1.7442307247     -1.172126028     -2.671050053
C     -1.7317054506     -2.1367294428     -1.8318950215
C     -0.745867557     -1.4858301328     -2.6952375179
C     -2.9284333063     -1.3930374862     -1.5501531114
C     -2.7855921345     -2.0061403384     0.8072279787
C     -3.4872761184     -1.4230335754     -0.2500385597
C     -1.4814715195     -0.9917898698     2.6635105394
C     -2.6367367847     -0.9854623086     1.8533314709
C     0.5158002869     0.441269719     3.1161481234
C     -0.9228808033     0.2704920987     3.0191328579
C     0.8192465298     1.8238001993     2.8625407512
C     2.7672812822     1.0724221889     1.5620777035
C     2.0072302352     2.132875937     2.1981769171
C     3.0291929562     0.6187328459     -0.8809612104
C     3.1085173217     1.5487933371     0.2213382214
C     1.6024445856     0.1760528356     -2.8439603925
C     2.3711901305     1.0919955725     -2.0443308785
C     -0.8635901614     -0.0424665778     -2.995513411
C     0.2986174637     0.7480296808     -3.063611397
C     -3.1178343224     -0.0467333338     -2.0495800585
C     -2.0647961185     0.6527401097     -2.6061036995
C     -3.8139402074     -0.0319264079     0.133920123
C     -3.2124774789     0.2583810011     1.3890327327
C     -3.6527099195     0.7915596684     -0.9596080624
C     -1.4763456943     1.507245748     2.5420756916
C     -0.4231256313     2.4993757826     2.5171784096
C     -2.5397981182     1.5091130883     1.58471085
C     -0.4223780431     3.4860506845     1.5267438602
C     2.0150580784     3.2694411429     1.3136801758
C     2.7064544612     2.8917413482     0.0786160126
C     0.8400452285     3.9310929649     0.9971009976
C     1.6555873706     2.363043419     -2.0503385478
C     0.3524571771     2.1304325456     -2.5775652854
C     1.869646783     3.2980759599     -1.0141326398
C     0.7313221652     3.9752900081     -0.4657763934
C     -1.9924166816     1.9939939114     -1.9782870654
C     -2.8948251274     1.9881243201     -0.8558330415
C     -2.4270306576     2.4448488169     0.4361531456
C     -1.3485508446     3.3581756244     0.4169363063
C     -0.7967506372     2.7237948166     -1.9528756802
C     -0.5748278927     3.5894945219     -0.8125351172


