60

 C     0.5506187943     4.0017731964     -1.2146937591
C     1.6112506219     3.7250790527     -0.3942674949
C     1.1806240815     3.7509477625     1.0182790738
C     -0.6039217106     4.2129543032     -0.3288603572
C     -0.2304107462     3.880807459     1.0448506291
C     -1.6759565082     3.5779520993     -0.9024734038
C     0.1551818851     3.0030402145     -2.2357942954
C     -1.2425680918     2.923841768     -2.1615768546
C     0.934358364     1.8102851979     -2.4654906671
C     2.4415442946     2.5803998424     -0.5922258045
C     2.1979287954     1.7060585715     -1.7232156142
C     1.8568603316     2.6995259349     1.6642150745
C     2.7158214074     2.0071677503     0.6937823595
C     1.1549769606     1.9126862318     2.5646841109
C     -1.0148524356     2.9261291402     1.797465234
C     -0.2732902236     2.0602295432     2.6698651425
C     -2.5059746289     2.66118446     -0.1960810837
C     -2.2359872846     2.347726365     1.182654471
C     -1.9048547975     1.696662032     -2.2511842235
C     -2.8199087621     1.5933852273     -1.1168317483
C     0.2483699664     0.5654165572     -2.8084834177
C     -1.208673404     0.5382697216     -2.7230918665
C     0.9696170357     -0.7280980702     -2.765209251
C     2.8184796257     0.4704523195     -1.6384214635
C     2.3191020211     -0.7054781042     -2.3428292251
C     3.0381560757     0.6372112709     0.8369385168
C     3.3774184031     -0.0100222784     -0.3850798717
C     1.4999856185     0.4981126985     2.7470328085
C     2.4429139844     -0.169452205     1.9224911898
C     -0.7818825263     0.7729747281     3.0976194477
C     0.3275236618     -0.1626887518     3.2253166078
C     -2.7017246873     1.0727846386     1.6197628092
C     -2.0070267438     0.316711501     2.6439093008
C     -3.25584257     0.3285383459     -0.6847418181
C     -3.2933417375     0.1009317034     0.7270941999
C     -1.8782966869     -0.6866519145     -2.4852147477
C     -2.9608686983     -0.7729253191     -1.5532277063
C     0.2318937052     -2.0108047793     -2.5974053155
C     -1.1801649919     -1.9750724253     -2.5110978813
C     0.8620476055     -3.1300967331     -1.9077557821
C     2.9278535736     -1.8514426788     -1.7298538706
C     3.432961969     -1.4089697873     -0.4568645004
C     2.1990553075     -3.0150065401     -1.4897588354
C     2.3102487591     -1.6279029253     1.7491031673
C     2.9119586083     -2.2524258785     0.5974700097
C     2.2733616825     -3.3377724676     -0.0556659227
C     0.1359440818     -1.5212922568     2.9779190036
C     1.1476764511     -2.2815349719     2.2821475677
C     -2.2139998942     -1.1031083114     2.4085523841
C     -3.0543047526     -1.2309084264     1.2512323345
C     -1.1663674201     -2.0101980176     2.6109276294
C     -2.9078413045     -2.0969268     -1.0156845644
C     -1.9021101984     -2.8756363241     -1.6807524386
C     -2.8716300634     -2.3284244319     0.380068556
C     0.1358405567     -3.8345530535     -0.8340946203
C     0.9981979647     -3.8028077704     0.3474568428
C     0.476351662     -3.349638519     1.5659120805
C     -0.9606864648     -3.1347837472     1.7026544792
C     -1.2253374394     -3.6544359176     -0.6977363525
C     -1.8062989837     -3.3101799308     0.6162593269


