60

 C     -1.7574957118     -4.0808991027     -0.175395862
C     -0.4257342505     -4.4067098908     -0.4330663393
C     0.3033052929     -4.0635769767     0.7835301823
C     -1.9103460218     -3.5126816413     1.1527275834
C     -0.6210265031     -3.4113245139     1.729895459
C     -2.7513126502     -2.3654051892     1.0490873355
C     -2.2427947337     -3.0963914615     -1.0981899136
C     -2.9357547344     -2.0653967509     -0.3866773378
C     -0.0557691703     -3.6681675399     -1.6502167481
C     -1.186205723     -2.792032678     -2.0197391479
C     1.2159252386     -3.1728686944     -1.7793186516
C     1.5826698624     -3.5541881852     0.6786665709
C     2.1566359334     -3.3597774314     -0.6683456857
C     2.0391020779     -2.4634625899     1.5131082377
C     -0.2320510528     -2.1987259809     2.4278475109
C     1.1454529209     -1.7037651858     2.3411772124
C     -2.4876497063     -1.2992177146     1.8766202182
C     -1.2479681503     -1.2265697084     2.626094546
C     -2.8333805394     0.0385065354     1.4631767487
C     -2.8709838665     -0.7445326024     -0.8467522369
C     -3.0670676073     0.3633188679     0.1074055812
C     -0.9873938255     -1.4583763526     -2.420339201
C     -2.0091166667     -0.4799028359     -2.0056785962
C     1.4512809999     -1.8473333203     -2.3197063668
C     0.3883523798     -0.9739044739     -2.6631768275
C     3.0039030883     -2.2734638814     -0.6363795888
C     3.0540588506     -1.7806307262     0.7336304409
C     2.6125582436     -1.3070762514     -1.672863414
C     3.3049228042     -0.4650319017     0.9319741359
C     1.4352626357     -0.2795697629     2.5726837966
C     2.631079436     0.2509688996     1.995097194
C     -0.9606880557     0.1751706362     2.82464379
C     -2.0592952678     0.9408330596     2.2716753974
C     0.358580498     0.6932137168     2.8038232818
C     -1.9276874522     2.2560393394     1.9067108946
C     -2.8903436817     1.7489845492     -0.3140638506
C     -2.5147387986     2.7330762325     0.667433385
C     -1.7983770752     0.8432204153     -2.3465872853
C     -2.4243459051     1.9620868542     -1.663611947
C     0.659248869     0.442220075     -2.694917208
C     -0.4869587089     1.2924271792     -2.84830883
C     2.7932345685     0.0764002813     -1.4776674469
C     3.4300231595     0.4615021799     -0.230403104
C     1.8600677982     1.0178388063     -2.1017940026
C     2.7363968028     1.613470615     1.6611842312
C     3.2238954363     1.7241607777     0.2680881534
C     0.5008499787     2.1282438896     2.4490754454
C     -0.6559255558     2.913186261     2.1124868219
C     1.733722802     2.557960986     1.8433824871
C     -1.7513247586     3.8922030188     0.2996950855
C     -0.5952204552     3.9676994156     1.1529316793
C     -1.6729676089     3.1192015148     -2.0017484816
C     -0.418873176     2.653779619     -2.6421216298
C     -1.3087467193     4.0507712242     -1.0391626216
C     1.8324394403     2.4172902314     -1.6521860045
C     2.4584375518     2.7191235089     -0.3887180912
C     1.7228385121     3.423971185     0.6429347282
C     0.580992347     4.1437677433     0.3183650907
C     0.7084310655     3.2518899042     -1.9851991212
C     0.163875439     4.1784557219     -1.0428176835


