60

 C     -0.1091430311     -4.3597061274     0.2649345509
C     -1.3277679839     -3.9061370677     -0.3239449716
C     -1.0197699116     -3.2064782144     -1.5493116612
C     0.9579531413     -4.0191332537     -0.5351150088
C     0.418729954     -3.2452119006     -1.6896655656
C     1.9417407205     -3.3779971091     0.3099589282
C     0.0409135063     -3.6730565109     1.5693926724
C     1.3087431891     -3.0550307798     1.6170605161
C     -2.0609505654     -3.2199375114     0.6811282602
C     -1.1321291562     -2.9349948024     1.8138767259
C     -2.938413227     -2.2566197453     0.2692720715
C     -1.7530024034     -2.0448042253     -1.9127198456
C     -2.9193423825     -1.7886599174     -1.1051379972
C     -1.0663533915     -0.8884666863     -2.5062587954
C     1.1096006851     -2.1253527976     -2.1641906844
C     0.383742858     -0.9229651536     -2.6149118286
C     2.7779999523     -2.4837309866     -0.2682310611
C     2.4701659494     -1.9595392172     -1.6266109553
C     3.3316728781     -1.3990416664     0.5081546663
C     1.459012462     -1.7465620497     2.1517972841
C     2.6465144929     -0.9777557113     1.7144398702
C     -1.0573577165     -1.6037019884     2.3325548011
C     0.2583951255     -1.0311340617     2.5962170936
C     -3.2070511453     -1.1023010814     1.119500942
C     -2.2183281311     -0.7219574833     2.0879789613
C     -3.516761698     -0.5140751855     -1.0828670745
C     -3.7954911189     -0.1248822395     0.2886210668
C     -1.761702987     0.4194752737     -2.5149170488
C     -2.996230059     0.588083308     -1.7795173539
C     -1.0070405812     1.6074357232     -2.7027118028
C     1.1302721897     0.3486694032     -2.6959443984
C     0.4383514796     1.5709215049     -2.724247084
C     3.1187544731     -0.7572808635     -1.7059900212
C     3.7720236002     -0.4386818923     -0.4284625906
C     2.4757392414     0.4346037286     -2.1792842553
C     3.6306952853     0.9318339895     -0.2082284002
C     2.9021731775     1.5263361298     -1.3561588215
C     2.7223824448     0.3944676132     2.0138321894
C     3.3075049443     1.3516452017     1.0905263063
C     0.3561277992     0.408839888     2.8471641274
C     1.6081745649     1.0748971589     2.6757583598
C     -2.0709132313     0.6831718391     2.303585412
C     -0.815596979     1.2269774654     2.7170348896
C     -3.5282018097     1.2572340769     0.4068917108
C     -3.2034930927     1.7681801279     -0.9235051416
C     -2.7661329159     1.6789273337     1.4990881128
C     -1.3892816436     2.8377654614     -2.0850534298
C     -2.3622064852     2.8564998413     -1.0432252401
C     0.9397604043     2.7563962108     -2.0439634257
C     2.0765273047     2.6756553847     -1.1881347324
C     -0.2048213982     3.4913650425     -1.6286485298
C     2.5848571571     2.5670979306     1.2309664072
C     1.6519886853     2.4479065038     2.3058152276
C     1.9728124098     3.2589010923     0.1361335412
C     -0.7455730759     2.6077482623     2.2375359975
C     -1.8929005506     2.8258620182     1.3681785564
C     -1.727359571     3.4624601845     0.1396718368
C     -0.380504676     3.8870200855     -0.2627999561
C     0.4790888584     3.1692817433     1.9402022297
C     0.7014017843     3.7695369026     0.6124843667


