60

 C     1.3570523935     4.1497704823     -0.7759443172
C     1.0575296295     4.0320651168     0.6066206778
C     1.910197797     3.0387536423     1.2033758749
C     2.2874992419     3.1350688609     -1.1050485619
C     2.704659846     2.4863913387     0.1182986154
C     1.6775678995     2.2758304336     -2.078087143
C     0.1253200689     3.8808507172     -1.4824195211
C     0.311480891     2.7578951328     -2.3332199605
C     -0.375333239     3.9539732272     0.793808487
C     -0.9741227844     3.8946208013     -0.5579494366
C     -0.8780981809     3.1178808849     1.784070675
C     1.3880961341     2.1617185467     2.2009774081
C     0.0008995571     2.2435472389     2.5445762528
C     1.9877876056     0.8702423128     2.3124900934
C     3.0770209164     1.1275260842     0.0993957338
C     2.9060915951     0.4002879361     1.313469486
C     1.9903365742     0.8981495766     -2.1489998112
C     2.9160298566     0.3624932959     -1.146679673
C     1.0130577676     0.0064821158     -2.7708339701
C     -0.7402850138     1.8176972288     -2.5426490514
C     -0.3834242003     0.43797395     -2.8803291866
C     -2.0362348748     3.0327843772     -0.7934033546
C     -1.9812763385     2.0721312692     -1.8739364231
C     -2.1318566265     2.3963171094     1.5818437385
C     -2.7208562635     2.374985499     0.3222624237
C     -0.7351562199     1.0549618902     2.8905501651
C     -2.0718947961     1.1722798912     2.3565505242
C     1.2829428137     -0.2749491027     2.8326550455
C     -0.1235265415     -0.2341390463     3.0413981653
C     2.9212486257     -1.0436658011     1.353014484
C     1.93279524     -1.4718849062     2.341625266
C     3.081148278     -1.0346364032     -1.080207013
C     3.11253535     -1.7642663376     0.1968601396
C     1.2911089683     -1.3888952659     -2.7417961748
C     2.3820272195     -1.8624217055     -1.9791895655
C     0.2424381451     -2.3971327448     -2.618207806
C     -1.3823094945     -0.5642896412     -2.7479136906
C     -1.0655877373     -1.9679656106     -2.5673996084
C     -2.8493768865     0.9729483908     -1.5255891345
C     -3.3081926988     1.1437231704     -0.1649692219
C     -2.6000755433     -0.3035992888     -2.0160087954
C     -2.755437914     0.0305682758     1.9484648059
C     -3.4230483981     0.0239971433     0.6629197096
C     -0.9062100362     -1.4475778287     2.7571156676
C     -2.2093331118     -1.2879515188     2.1930217569
C     1.237016295     -2.6474613934     2.1748971585
C     -0.2052148223     -2.661503971     2.4253318442
C     2.4226312558     -3.0522874551     0.0243865483
C     2.0183363142     -3.1248731358     -1.3332602038
C     0.6983316072     -3.4620131097     -1.7155808686
C     1.5292200858     -3.5093370387     1.0191902546
C     -0.7588365286     -3.5793551732     1.5048362386
C     -0.1864642058     -3.9670195095     -0.7287395195
C     0.2875002064     -4.0623572068     0.6096276404
C     -2.0026752191     -2.5391394616     -1.598302816
C     -2.9160334535     -1.4760116199     -1.2195479634
C     -3.2889394849     -1.3076864634     0.118463732
C     -2.663249994     -2.1513214884     1.1229824071
C     -1.5658715855     -3.4759320009     -0.6705867786
C     -1.9109864854     -3.2642416113     0.7417186506


