60

 C     -0.3690328343     -3.030634594     2.4773175274
C     0.933948154     -2.4974287745     2.6618655481
C     1.6595327949     -2.6669005997     1.4080509642
C     -0.4244004211     -3.6091633662     1.1615244156
C     0.8334446396     -3.4711489916     0.5141150571
C     -1.6110555862     -3.1785255468     0.512108727
C     -1.5143267769     -2.1945241912     2.652001087
C     -2.2342307739     -2.1705518501     1.383707286
C     -1.380081513     -1.0274208269     3.3965493374
C     1.0820758648     -1.3155339417     3.3886262656
C     -0.0871775375     -0.7131341941     3.9269044633
C     1.9469356267     -0.2236614255     2.9034613829
C     2.4436139005     -1.596623623     0.8997489545
C     2.5325568529     -0.2970488929     1.62663115
C     2.6746535255     -1.6080357761     -0.5031225689
C     0.882830782     -3.2908046212     -0.8956663507
C     1.9897557141     -2.5276853423     -1.3869036662
C     -1.5820065281     -3.002522119     -0.8621795138
C     -0.3568980456     -3.1953544866     -1.6178787782
C     -2.3354632105     -1.9346942102     -1.4577912229
C     -2.7047030363     -0.960078271     0.8395496799
C     -2.8590040577     -0.8899862666     -0.6293028012
C     -1.9469356267     0.2236614255     2.9034613829
C     -2.5325568529     0.2970488929     1.62663115
C     0.0871775375     0.7131341941     3.9269044633
C     1.380081513     1.0274208269     3.3965493374
C     -1.0820758648     1.3155339417     3.3886262656
C     1.5143267769     2.1945241912     2.652001087
C     2.7047030363     0.960078271     0.8395496799
C     2.2342307739     2.1705518501     1.383707286
C     2.9929925494     -0.3917839123     -1.2432756421
C     2.8590040577     0.8899862666     -0.6293028012
C     1.892527658     -1.8795611511     -2.6417638658
C     2.5745242479     -0.594194681     -2.5779383855
C     -0.4657296018     -2.3723075238     -2.7961704022
C     -1.7153907635     -1.6460956948     -2.7371848544
C     0.67606488     -1.7369877316     -3.3385769257
C     -1.8042296129     -0.3599184717     -3.2731566002
C     -2.9929925494     0.3917839123     -1.2432756421
C     -2.5745242479     0.594194681     -2.5779383855
C     -2.4436139005     1.596623623     0.8997489545
C     -2.6746535255     1.6080357761     -0.5031225689
C     -0.933948154     2.4974287745     2.6618655481
C     0.3690328343     3.030634594     2.4773175274
C     -1.6595327949     2.6669005997     1.4080509642
C     1.6110555862     3.1785255468     0.512108727
C     0.4244004211     3.6091633662     1.1615244156
C     -0.8334446396     3.4711489916     0.5141150571
C     2.3354632105     1.9346942102     -1.4577912229
C     1.5820065281     3.002522119     -0.8621795138
C     1.8042296129     0.3599184717     -3.2731566002
C     0.6021301782     -0.3321790362     -3.7912501683
C     -0.6021301782     0.3321790362     -3.7912501683
C     1.7153907635     1.6460956948     -2.7371848544
C     -1.892527658     1.8795611511     -2.6417638658
C     -1.9897557141     2.5276853423     -1.3869036662
C     -0.882830782     3.2908046212     -0.8956663507
C     0.3568980456     3.1953544866     -1.6178787782
C     -0.67606488     1.7369877316     -3.3385769257
C     0.4657296018     2.3723075238     -2.7961704022


