60

 C     0.9047530154     -4.2959642176     -0.0646883685
C     2.0927783642     -3.6219612751     0.0266511015
C     2.3214125787     -2.8748756638     -1.2257438305
C     0.3333437864     -3.9877282536     -1.4145533306
C     1.1366840659     -2.9658627156     -2.0401287928
C     -1.0159330801     -3.8110802519     -1.2414712786
C     -0.1338862899     -4.0851550646     0.924941222
C     -1.3582741238     -3.9341067914     0.1928585867
C     0.1243309242     -3.1904302518     1.9985076868
C     2.3907857588     -2.722090673     1.1184861967
C     1.4103987372     -2.5079462906     2.0908776261
C     2.8947447025     -1.6629447009     -0.9253405323
C     3.0200374879     -1.5609730885     0.5530176244
C     2.520155343     -0.4950897263     -1.6747261056
C     0.5280808836     -1.7562381767     -2.5274245926
C     1.2931402421     -0.4947739395     -2.4492526719
C     -1.6910593437     -2.680628629     -1.7791736908
C     -0.9373961447     -1.6822853949     -2.4938758817
C     -2.2883662904     -2.9407627425     0.4821195172
C     -2.6292821012     -2.2514473912     -0.7796371989
C     -0.8724297956     -2.2171213313     2.3650482952
C     -2.1222138812     -2.1182018491     1.6649085201
C     1.1872132975     -1.1576538214     2.605156431
C     -0.2125751569     -0.9965380533     2.8313392625
C     2.9489966963     -0.3074392533     1.1573333886
C     1.9643710588     -0.0508597942     2.2164717993
C     3.0099674534     0.7089370659     -1.1468613059
C     3.3154835589     0.7797392094     0.3072555711
C     2.5324010224     1.9818023167     -1.5363282757
C     0.6444913064     0.8065430603     -2.6565671856
C     1.288798778     2.0742409853     -2.2474082328
C     -1.5350858673     -0.4034693732     -2.5658912625
C     -0.7716669423     0.7979791364     -2.7741397063
C     -3.1629409572     -0.9523635061     -0.7731410657
C     -2.7195527474     -0.0654224247     -1.8124615975
C     -2.7744406852     -0.8740439598     1.6991227726
C     -3.4766651049     -0.3616335992     0.5095845732
C     -0.8328822927     0.2750575168     2.7803021846
C     -2.2149982638     0.263682725     2.3892429605
C     1.4091626684     1.3063453292     2.3558811712
C     -0.0173841837     1.4800283644     2.565714347
C     3.1721930729     2.0762009585     0.7370139477
C     2.837150123     2.8845569512     -0.4314584233
C     2.1665661713     2.3823967089     1.7531462687
C     1.9694182952     3.8790660135     -0.0545532289
C     1.5256484714     3.5700138055     1.3400191066
C     0.4599145372     3.2229335335     -1.9326110976
C     0.8236413939     4.1026860499     -0.8354511067
C     -1.5723819258     1.9081082205     -2.3139210689
C     -2.7586201606     1.3657111332     -1.6566309268
C     -0.9729842037     3.0716118462     -1.8755665674
C     -3.5523547323     1.0248315917     0.6249213431
C     -2.7664259918     1.4161169838     1.794096284
C     -3.1675979682     1.8990087621     -0.4287616201
C     -0.676154614     2.6938382805     2.0296163123
C     0.1182606964     3.6858752487     1.3729923857
C     -0.2912222571     4.1658889566     0.0593883071
C     -1.4383552548     3.6547274947     -0.5973134697
C     -2.0184073743     2.5712173956     1.5425214039
C     -2.3627866571     2.9779460598     0.166545919


