60

 C     -0.3754485795     4.4455575035     0.8124729311
C     0.9825570677     4.178153216     0.8330792991
C     1.2572518136     3.2147509913     1.9327601332
C     -1.0065890043     3.486281109     1.7607949705
C     -0.0077308085     2.7320044067     2.4255494396
C     -2.0857967396     2.854523657     1.0681944365
C     -1.0954625394     4.3782902133     -0.4116859165
C     -2.2045767753     3.4429683335     -0.2260935628
C     -0.4219166134     4.0123023266     -1.5941698827
C     1.6701429374     3.6972375922     -0.3421229568
C     0.9554891673     3.5891601815     -1.5621235241
C     2.1810589098     2.2917502395     1.5012053672
C     2.4823165211     2.5841890292     0.0756978279
C     2.1341078664     0.9293352643     1.990904756
C     -0.2032355502     1.3392575319     2.673269246
C     0.9335742237     0.4377628519     2.6710174545
C     -2.308379017     1.4561961454     1.2662626347
C     -1.502898602     0.7894150282     2.3015940497
C     -2.7870104634     0.6555615453     0.1643212248
C     -2.2534732064     2.5697799146     -1.3473755994
C     -1.1942018365     2.9636457998     -2.2487163725
C     -2.5454239466     1.1964253075     -1.1740372112
C     1.0475926181     2.3379432534     -2.3145425109
C     -0.3156091755     1.9767129085     -2.7173568159
C     2.7480230526     1.4944130369     -0.761705863
C     1.9469893305     1.3120209661     -1.98729802
C     2.9255736197     0.0228488009     1.2899936611
C     3.2642711762     0.3281359411     -0.1116995163
C     2.7481314045     -1.4026835744     1.4168017945
C     0.7211320599     -0.9983741439     2.7821676369
C     1.6659071063     -1.953845918     2.1712097691
C     -1.6858634766     -0.5678710564     2.4866631809
C     -0.6300095143     -1.4311265811     2.9482309015
C     -2.944642855     -0.7788089152     0.3465488983
C     -2.5972608194     -1.3435903769     1.6302541527
C     -2.8765239182     -1.6436989727     -0.7676887204
C     -1.9844394616     0.2692467836     -2.1440972457
C     -0.7206503485     0.6200710279     -2.7795817805
C     -2.3074042712     -1.0927332925     -2.0073983116
C     1.6582625141     -0.0620473821     -2.450338715
C     0.3093966908     -0.3948421238     -2.9002738195
C     3.2869724286     -0.8780486942     -0.7886224698
C     3.0871606575     -1.9639639826     0.1604400447
C     2.4436680945     -1.1190807192     -1.925199567
C     2.3251867742     -2.9815882842     -0.4385956392
C     1.9216071317     -2.4773479804     -1.7735986546
C     1.1790326399     -3.2364392124     1.7183341315
C     1.4319925676     -3.6891853871     0.3625815536
C     -1.0333917502     -2.7555236132     2.6113799204
C     -2.2554815244     -2.6826934014     1.7618681014
C     -0.1658612642     -3.6339904304     2.0128146091
C     -2.4331303789     -3.0234197492     -0.6414071326
C     0.1599073458     -4.1664448808     -0.2185925558
C     -2.092829295     -3.5457378008     0.6284806611
C     -0.8090421958     -4.183560359     0.7950120284
C     -1.4654671243     -2.0634637606     -2.5618623948
C     -0.1157072448     -1.7520441928     -2.8738123389
C     0.6868781035     -2.8088110742     -2.277340443
C     -1.5197120442     -3.2567573187     -1.7266435497
C     -0.2090133786     -3.7182179282     -1.5259239258


