60

 C     -1.3995687061     -4.380230225     -0.5857909759
C     -0.0796063447     -4.2602321374     -1.1684908337
C     0.829981766     -4.2902948913     -0.1197970519
C     -1.2690964256     -4.1519777675     0.8856028644
C     0.0788156698     -4.1669312624     1.1826197782
C     -2.0396207185     -3.0070630082     1.2506344494
C     -2.202125915     -3.3854020245     -1.0894683254
C     -2.7907466251     -2.6727765083     0.0317614507
C     -0.0771615544     -3.0833125837     -2.0445167444
C     -1.4261192676     -2.5628586621     -2.0439759136
C     1.0092056857     -2.1763173188     -2.0522387297
C     1.9232105049     -3.416124408     -0.0793351316
C     2.1550090709     -2.4800983276     -1.1564050875
C     0.6917147539     -3.1030836513     1.8960130273
C     1.9973879401     -2.9033387557     1.2856867017
C     -1.4632929476     -1.9152261584     2.0002256682
C     -0.0433280743     -1.9432761972     2.3308986744
C     -2.1151300031     -0.6071600869     1.9077411526
C     -3.1666506077     -1.3929353781     -0.1721328906
C     -3.0920309658     -0.4462041424     0.8996460888
C     -1.6769906429     -1.1841735602     -2.1667562188
C     -2.7962854955     -0.6538562485     -1.3942117386
C     0.7623275087     -0.7725430909     -2.4159826551
C     -0.5942432957     -0.2652400851     -2.4638769789
C     1.8616925978     0.1897668098     -2.2860955608
C     3.0745936453     -1.4581999254     -0.8640776896
C     3.0079308613     -0.15609246     -1.5159687603
C     2.7060018278     -1.7671857055     1.5399833131
C     3.504783539     -1.242968974     0.4834075846
C     0.6958633229     -0.6598519729     2.4915836432
C     2.0847150516     -0.6398408733     2.2249882701
C     -1.4528645612     0.6266820575     2.3714213949
C     -0.0115377127     0.6348963035     2.5178512798
C     -2.1232458349     1.8628359223     2.1149061759
C     -3.3215334053     0.8278442812     0.2918657501
C     -2.9607638553     0.6985840933     -1.1384832164
C     -3.063388516     1.9575432251     0.9884781016
C     -0.8755729459     1.1957553881     -2.3829108693
C     -2.1072517897     1.6993653906     -1.7237047654
C     1.570701258     1.5868297593     -2.4226534734
C     0.1961583631     2.0878074299     -2.4882001173
C     2.3061412446     2.54610395     -1.6939474799
C     3.5402329279     0.8146704157     -0.5846490742
C     3.6360006701     0.1580748022     0.6792874967
C     2.7440045655     0.5529901241     1.716268278
C     3.0870496272     2.1249649187     -0.5917003281
C     0.717638797     1.8774187646     2.2301618984
C     2.0708703519     1.8087440776     1.6519661243
C     2.4468462523     2.6904238384     0.5938040304
C     -1.4132415272     3.0902339701     2.0757805829
C     -0.0057196226     3.0856370912     2.0058970726
C     -2.7443739623     3.1439953012     0.2236520458
C     -2.1437763935     2.9859267882     -1.129866048
C     -1.9319383805     3.9514006245     0.9955164781
C     0.1486321962     3.4191260464     -1.8660776463
C     1.4237298951     3.6259274202     -1.2837802931
C     1.5257796244     3.7155420121     0.1327330882
C     0.3795727472     3.995625237     0.8874573202
C     -0.9852171245     3.8418481342     -1.1570234945
C     -0.8041692449     4.3482322139     0.1942784077


