60

 C     -0.5468102201     4.4571065404     0.652535912
C     0.8255737533     4.3011576734     0.5457527387
C     1.2702725864     3.4406808901     1.654236298
C     -1.0224295842     3.5498688812     1.7352857457
C     0.0781509775     2.8889014533     2.3017179807
C     -2.1018842279     2.7826294512     1.204960949
C     -1.3799013103     4.2647116463     -0.4823296789
C     -2.3694652607     3.2484776902     -0.1228801169
C     -0.8092538937     3.8584716073     -1.7017358542
C     1.4182584264     3.7840909259     -0.6738955175
C     0.5813842753     3.5305270219     -1.7979515867
C     2.217313226     2.5628610639     1.1828458914
C     2.34589969     2.7664006384     -0.2878148284
C     2.345200545     1.2466299078     1.7603382872
C     0.0097726768     1.4928421193     2.6265372068
C     1.2427341187     0.7229069414     2.5802214616
C     -2.2119489733     1.3926536387     1.4988133303
C     -1.2373122701     0.778941129     2.3841492715
C     -2.8401362314     0.5467472511     0.4811172216
C     -2.5205865313     2.3176732826     -1.1960825484
C     -1.5789322255     2.7069625552     -2.2011758059
C     -2.7301123096     0.9509120383     -0.9188266055
C     0.6689799841     2.2252592236     -2.4563763083
C     -0.7066488745     1.7407474322     -2.6963648639
C     2.6040504425     1.6340267165     -1.0752122156
C     1.6754038868     1.2979435259     -2.1731121343
C     3.1426066574     0.3518788692     1.0438816428
C     3.2772322771     0.558689948     -0.418155758
C     3.0827207978     -1.0693671009     1.2698892709
C     1.1754041624     -0.6798158892     2.7496543082
C     2.1017150509     -1.5782978883     2.1270813275
C     -1.2812739787     -0.6638637271     2.5628167743
C     -0.091677851     -1.3706049589     2.847982517
C     -2.9781404798     -0.8054014578     0.742279807
C     -2.3445487582     -1.4080923465     1.9255995202
C     -3.0403415109     -1.7912471506     -0.2963514139
C     -2.1945714091     -0.0440897177     -1.8334617205
C     -1.0275856153     0.3627730794     -2.6009386142
C     -2.4300667937     -1.4446906851     -1.5623082328
C     1.4352873816     -0.1226177595     -2.5066000917
C     0.055875629     -0.584154243     -2.7738534149
C     3.3099084969     -0.6924747088     -1.006595508
C     3.2715197958     -1.7197268373     0.0144613096
C     2.3688910857     -1.069664476     -2.0372224119
C     2.4550063167     -2.785934375     -0.4023664151
C     1.9655600757     -2.4259190302     -1.7378077677
C     1.3971577425     -2.8213785256     1.8033584098
C     0.0949001889     -2.7498483469     2.4131190944
C     1.5764611248     -3.4612991828     0.527144487
C     -2.2457228386     -2.7730176727     1.6945414827
C     -2.7437204065     -3.0438875171     0.3314355455
C     -0.9847920109     -3.4647359064     1.8589627598
C     0.4384386101     -4.1544906449     -0.0363432172
C     -1.8979544151     -3.960864156     -0.2651037066
C     -0.7746115518     -4.2411867434     0.6814984312
C     -1.551315065     -2.4031245907     -2.1589207178
C     -0.2593171914     -1.944865602     -2.6479292662
C     0.7374841115     -2.9040577485     -2.175177702
C     -1.3420833013     -3.6837844849     -1.5309834768
C     0.0739810966     -3.9009697677     -1.4283409823


