60

 C     0.7917323349     -4.4867930501     -1.4215299692
C     0.3712663506     -4.8628694627     -0.082982388
C     -0.9477503209     -4.3649411015     0.105998906
C     -0.2688772446     -3.7127358303     -1.9831497573
C     -1.3900577934     -3.6752925807     -1.0875331179
C     0.2212268763     -2.4355931496     -2.5091395615
C     1.8286121665     -3.5213663546     -1.2723713663
C     1.5931970266     -2.3365657239     -2.0907923449
C     1.1441005723     -4.0830064902     0.840845036
C     2.1371136237     -3.320983017     0.1220215484
C     -1.0495315649     -3.6520530789     1.3730711597
C     0.3106980015     -3.3943487189     1.8169350736
C     -1.9647134545     -2.6378865331     1.4629549248
C     -2.189079429     -2.4945325757     -0.9974732983
C     -2.7095947187     -2.1677231932     0.2928380807
C     -0.5822506687     -1.2897812121     -2.5213346125
C     -1.9154016373     -1.3659508851     -1.9019855856
C     0.0975585572     0.0082028613     -2.6017588289
C     2.1253641658     -1.1090374442     -1.7086444612
C     1.4741567619     0.1018417282     -2.2068018589
C     2.5077170828     -2.0464546142     0.5706706958
C     2.8524366603     -1.0363014178     -0.4389106324
C     0.6775960894     -2.1187427328     2.2910762295
C     1.95008382     -1.5569877825     1.8382261968
C     -1.695598646     -1.4701089227     2.2825630518
C     -0.3811266873     -1.1535829217     2.6845684817
C     -3.1696159864     -0.8557511351     0.5848549338
C     -2.6141266975     -0.4345168811     1.8644061711
C     -2.5668228229     -0.1501874067     -1.658830359
C     -3.282103928     0.0977974531     -0.4272662027
C     -0.726768959     1.2191170174     -2.6226960465
C     -2.0645396494     1.1207015803     -2.1468218776
C     -0.0909634342     2.4901871208     -2.5391607822
C     2.0451997378     1.3930482486     -1.8188432444
C     1.307100584     2.5911850522     -2.1173982115
C     3.2322958004     0.2186569319     0.0190371934
C     2.9557595833     1.4428212465     -0.7350549102
C     2.2663405401     -0.2420330125     2.1968939185
C     3.1492428685     0.5215367333     1.4087538399
C     -0.063854956     0.2684977755     2.8940093503
C     1.2698483247     0.695224772     2.7640195405
C     -2.3505511333     0.8989696109     2.0923077612
C     -1.0676829254     1.2828247299     2.6541806497
C     -3.1642018552     1.5027175417     -0.1307688198
C     -2.5861699549     2.1629805979     -1.2918898485
C     -2.7483635185     1.9108330674     1.1433374802
C     -0.7682364999     3.6092525612     -1.9686842403
C     -1.9183411281     3.3766383305     -1.1470495385
C     1.4626424596     3.7852601875     -1.3491247754
C     0.1909224045     4.4358017628     -1.2755040814
C     2.815015363     2.5229533467     0.2345776044
C     2.7541635251     1.8994491518     1.5046167907
C     1.604531283     2.0303825864     2.3433666752
C     1.9678316229     3.6089571804     -0.0117500821
C     -0.7579453946     2.6040797484     2.2090050167
C     -1.8206551057     3.0213980591     1.2826804882
C     -1.5380527003     3.8369903156     0.1985301434
C     -0.1987490519     4.3969942788     0.0821966462
C     0.6029018656     3.0080289938     1.9919760688
C     0.8850720142     3.9127971573     0.9147308459


