60

 C     -1.6325598259     -4.4104142996     -0.2131583245
C     -0.3685233993     -4.5295065084     -0.8699160095
C     0.6366279216     -4.668682445     0.1386944962
C     -1.3245966448     -4.0429525366     1.1832405363
C     0.0202006904     -4.2471113635     1.4405155952
C     -1.9043831584     -2.7534828388     1.4805709366
C     -2.2939389144     -3.3040389144     -0.7624971356
C     -2.6308860568     -2.386168611     0.2856124517
C     -0.2388048501     -3.4481435147     -1.8418120918
C     -1.487796367     -2.7183886238     -1.8286996806
C     0.9693218375     -2.6902942152     -1.9665005972
C     1.8064332757     -3.9692118804     0.0029989204
C     2.0542776158     -3.0670539881     -1.0863373076
C     0.8238079768     -3.1859299763     1.9934830903
C     2.0384172729     -3.1819817896     1.2473579302
C     -1.1738221559     -1.7106120283     2.1295520095
C     0.2593800143     -1.8974646978     2.349145004
C     -1.7211448185     -0.3612257554     2.024692508
C     -2.894658019     -1.0550482917     -0.021226005
C     -2.8019196567     -0.1150981204     1.0697097579
C     -1.5754399127     -1.3299082322     -2.0881422459
C     -2.5908310913     -0.5883173854     -1.3541595995
C     0.8741570819     -1.2719651052     -2.4031415567
C     -0.4045713868     -0.5845124377     -2.51317628
C     2.0000653341     -0.4361808317     -2.1767001288
C     2.8482492841     -2.0067579064     -0.5257320647
C     2.7166520354     -2.0205396602     0.9406971175
C     2.9454324235     -0.8036788959     -1.1612855261
C     1.1096747901     -0.7148682041     2.284135255
C     2.3707638828     -0.7890169642     1.5735492594
C     -0.9433240785     0.7733891895     2.4433160817
C     0.5178839984     0.6110651286     2.5136842796
C     -1.4834618982     2.1032243236     2.2439205106
C     -3.2222355382     1.1957562017     0.7983630289
C     -2.6668849083     2.2874119588     1.5118596196
C     -2.7088491566     0.7896207629     -1.5738462852
C     -3.2736599168     1.6087087362     -0.5800942382
C     -0.4526337801     0.9005214205     -2.5643754412
C     -1.6600325477     1.5489471456     -2.2353555912
C     1.9722085607     1.0105939403     -2.2064057321
C     0.774144974     1.7121774024     -2.4515537291
C     3.2661703518     0.389044137     -0.4046050828
C     2.935163904     0.4117856714     0.9839208191
C     2.9306928216     1.5079032232     -1.2256700141
C     1.3189870962     1.758799704     2.331553408
C     2.5442921011     1.6637174116     1.5334914662
C     -0.6098267409     3.2608336961     1.9914182716
C     0.7615033227     3.0894623724     2.0960003859
C     -2.4361801153     3.40949727     0.5832957562
C     -2.7449739978     2.9588627362     -0.6954849063
C     -1.7279385701     2.9321206899     -1.7197863627
C     -1.1747096329     4.0133208126     0.8715410168
C     0.7033949056     3.0826058816     -1.9676835743
C     -0.5703149565     3.655848125     -1.513393842
C     -0.3336768044     4.3306820702     -0.2249188265
C     2.7609361302     2.7684759098     -0.6469902203
C     2.6870783244     2.8461775556     0.7876037724
C     1.6141699598     3.7665679322     1.1518624445
C     1.7211547022     3.6026178595     -1.1474213048
C     1.0713362104     4.2988169533     -0.0157161248


