60

 C     -0.2205784547     -4.2829150162     0.6812667742
C     1.0963850211     -4.0647511995     0.9083703531
C     1.7648231745     -3.8844811082     -0.4195473658
C     -0.4362434381     -4.2222055147     -0.8060668485
C     0.7452065091     -3.6647652742     -1.4099160636
C     -1.6428150956     -3.6438745818     -1.0034038778
C     -1.2320337962     -3.4632235461     1.3088881723
C     -2.2466700136     -3.3087543319     0.3232607018
C     -0.8542794822     -2.305927016     2.0928389676
C     1.535861847     -2.9850915224     1.7787807791
C     0.5840183219     -2.0410593921     2.3078447552
C     2.7461693003     -2.9609533888     -0.237986554
C     2.7039236178     -2.4691930056     1.1744182093
C     2.8566971807     -1.8221632578     -1.0726693665
C     0.6658588341     -2.3826402868     -2.0977121608
C     1.7980155993     -1.4605179069     -1.9747932141
C     -1.8031443901     -2.4977096354     -1.8408910994
C     -0.6592011754     -1.7837354746     -2.3370078011
C     -2.9905711601     -2.1551362689     0.1777302083
C     -2.8843679147     -1.7601901701     -1.2438608659
C     -1.7934291218     -1.1868618711     2.1092756155
C     -2.9280032422     -1.1319050342     1.1824770315
C     -1.3228522104     0.0603346947     2.6079269827
C     1.0474566159     -0.6530235902     2.4886237325
C     0.0676862541     0.3294194431     2.7623434492
C     3.0558504499     -1.1227595392     1.1789495252
C     3.4094433348     -0.8003341896     -0.2016308281
C     2.304362577     -0.1622130571     1.9202516997
C     3.4120604819     0.4796432166     -0.5935903729
C     1.649392166     -0.0235329521     -2.2857511104
C     2.6931506554     0.8500235641     -1.8211397276
C     -0.8096152406     -0.315833209     -2.5466986218
C     0.3575521403     0.5818724352     -2.5480490411
C     -3.1040628722     -0.4646411525     -1.5940981903
C     -2.081106753     0.2720962721     -2.3231279968
C     -3.4580081148     0.1334401653     0.7873740711
C     -3.655691724     0.4006143824     -0.6072589516
C     -1.9695527407     1.3261685841     2.2988022324
C     -3.0111578309     1.3721603448     1.3847927973
C     0.3046821522     1.7611185103     2.5698177688
C     -0.9700567881     2.3801782764     2.3440205834
C     2.4938717224     1.2519913152     1.5718975301
C     3.2420741299     1.533348555     0.3796872768
C     1.5084823929     2.2607999674     1.9854183715
C     2.521844654     2.2216000616     -1.7488880915
C     2.9782742597     2.6918600189     -0.4028678761
C     0.1681256581     2.0453494077     -2.3647724883
C     1.3001352748     2.8646079917     -2.0459151629
C     -2.2322992207     1.6595958353     -1.9266568522
C     -3.2319621299     1.7232479442     -0.8997282735
C     -2.964808375     2.3999945198     0.3257009841
C     -1.1400335524     2.5521562485     -1.9063190778
C     -1.0567237876     3.4744679728     1.4607062044
C     -1.9834078392     3.3593957567     0.318256046
C     -1.1989088706     3.5862771957     -0.8939495357
C     1.4065286837     3.5185272701     1.2585235641
C     2.1525214172     3.6890972933     0.0159030341
C     1.192794963     3.9535433515     -1.0767193051
C     0.1252546103     4.0651844676     1.0025788334
C     -0.0069187643     4.2222780305     -0.4757095334


