60

 C     -4.4099731615     0.3925618382     -0.4801297563
C     -4.1998833585     -0.5945642681     0.5138149745
C     -3.5635626532     0.0297521044     1.6233051183
C     -3.7307129915     1.6067491526     -0.0746848358
C     -3.255949291     1.4243318342     1.2452721553
C     -2.8279318576     1.998717538     -1.1145466043
C     -3.8478384557     -0.0387876393     -1.7030601339
C     -3.0323149729     1.0425376807     -2.2151084937
C     -3.5050386253     -1.7022845716     -0.1340654275
C     -3.2713893762     -1.3458421377     -1.53569131
C     -2.4907014445     -2.3358872909     0.5545726787
C     -2.6318324747     -0.6948874027     2.4217685048
C     -2.1504979162     -1.9420026341     1.9090446995
C     -1.7117886768     0.0896532483     3.1976614466
C     -2.0171610577     2.0024421661     1.6345274139
C     -1.4013922244     1.45675204     2.7916489938
C     -1.5128709814     2.4781662431     -0.8200384001
C     -1.1559601333     2.6113982363     0.5885890395
C     -0.447731426     2.2915552203     -1.8242406717
C     -1.9791984576     0.716822019     -3.0076429105
C     -0.7571477631     1.5095579804     -2.9749174646
C     -2.031771429     -1.6514534671     -2.1756994986
C     -1.5892856561     -0.6996463559     -3.1531029244
C     -1.2444080783     -2.7268987703     -0.1059734651
C     -0.9732414859     -2.3949140102     -1.4502411306
C     -0.7846675101     -2.3414166357     2.1440286489
C     -0.2074592559     -2.7945828367     0.8930461117
C     -0.5263751334     -0.488172006     3.6984314134
C     0.0035368955     -1.6701593782     3.0772807751
C     -0.0035368955     1.6701593782     3.0772807751
C     0.5263751334     0.488172006     3.6984314134
C     0.2074592559     2.7945828367     0.8930461117
C     0.7846675101     2.3414166357     2.1440286489
C     0.9732414859     2.3949140102     -1.4502411306
C     1.2444080783     2.7268987703     -0.1059734651
C     2.031771429     1.6514534671     -2.1756994986
C     0.2526752275     0.6893251184     -3.523849047
C     -0.2526752275     -0.6893251184     -3.523849047
C     1.5892856561     0.6996463559     -3.1531029244
C     0.447731426     -2.2915552203     -1.8242406717
C     0.7571477631     -1.5095579804     -2.9749174646
C     1.9791984576     -0.716822019     -3.0076429105
C     1.1559601333     -2.6113982363     0.5885890395
C     1.5128709814     -2.4781662431     -0.8200384001
C     1.4013922244     -1.45675204     2.7916489938
C     1.7117886768     -0.0896532483     3.1976614466
C     2.0171610577     -2.0024421661     1.6345274139
C     2.1504979162     1.9420026341     1.9090446995
C     2.4907014445     2.3358872909     0.5545726787
C     2.6318324747     0.6948874027     2.4217685048
C     3.2713893762     1.3458421377     -1.53569131
C     3.5050386253     1.7022845716     -0.1340654275
C     3.0323149729     -1.0425376807     -2.2151084937
C     2.8279318576     -1.998717538     -1.1145466043
C     3.8478384557     0.0387876393     -1.7030601339
C     3.255949291     -1.4243318342     1.2452721553
C     3.5635626532     -0.0297521044     1.6233051183
C     4.1998833585     0.5945642681     0.5138149745
C     3.7307129915     -1.6067491526     -0.0746848358
C     4.4099731615     -0.3925618382     -0.4801297563


