60

 C     1.7520124743     -3.6702257093     1.5449420602
C     1.2953515541     -4.0221884485     0.2215575204
C     1.9489422592     -3.189340835     -0.7253623896
C     2.6444803809     -2.5504644325     1.4082348
C     2.8496439782     -2.2891648276     0.0283277231
C     2.1928554153     -1.4622853521     2.2198693488
C     0.6199454646     -3.1863524343     2.2106841158
C     0.8604374311     -1.8379315189     2.69944923
C     -0.140694544     -4.0884002005     0.2055099417
C     -0.5932201637     -3.5050323835     1.4711115432
C     -0.8092135879     -3.7354859444     -0.9748141425
C     1.2261357103     -2.6615743736     -1.8569155857
C     -0.133865091     -3.0080733146     -2.0267368685
C     1.6502778083     -1.388311167     -2.3662284715
C     3.1092409395     -0.9645035127     -0.3975624321
C     2.6436218983     -0.6167171617     -1.7198077023
C     2.4732843165     -0.1410549615     1.862428579
C     3.1523686068     0.0963243063     0.5893562894
C     1.5862906374     0.8881282142     2.406680284
C     -0.1686673238     -0.8956430975     2.7345120532
C     0.2144186043     0.5318481741     2.7435345675
C     -1.6676682655     -2.6016017716     1.5168842032
C     -1.515261773     -1.3261063955     2.2752060109
C     -2.1019709484     -3.1638005893     -0.8448299041
C     -2.5535650855     -2.5982032508     0.3646135944
C     -1.1002655081     -2.0029067141     -2.5364456179
C     -2.3346333797     -2.2048100911     -1.9151946973
C     0.698270828     -0.44647346     -2.9705123921
C     -0.6978819335     -0.6667583944     -2.9038185762
C     2.4725068585     0.7757624708     -2.1079755837
C     1.2466890087     0.8696871613     -2.8775110649
C     3.2040864901     1.4459181931     0.1264351983
C     2.8364096402     1.7897156043     -1.2595092649
C     1.8953655292     2.2368916188     2.0704916557
C     2.7709359879     2.4857309701     0.9386111611
C     0.8761826066     3.2129101957     2.0084152939
C     -0.8194115267     1.5342536077     2.5976668895
C     -0.4750399028     2.8702500128     2.1673469065
C     -2.4519390803     -0.322324087     2.0517111374
C     -2.1439365665     1.0888637418     2.2759412668
C     -3.3123145459     -1.4212356399     0.0223094987
C     -3.059890295     -1.0987912725     -1.3783417108
C     -3.4191172487     -0.3909683762     0.9379015718
C     -1.5821262519     0.4718159707     -2.5986786926
C     -2.7804913074     0.2378380796     -1.778485751
C     0.4087264127     1.9709531187     -2.7166649665
C     -1.0051351401     1.7742383349     -2.5730035196
C     2.0780536142     3.0468588473     -1.2313773222
C     2.1593035326     3.5360330678     0.1117970963
C     1.0311025262     3.9997424422     0.7675457837
C     0.8424427107     3.1088067993     -1.899135098
C     -1.2160729428     3.5177685828     1.0771621076
C     -1.4708858259     2.8148527546     -1.6592828637
C     -0.2435468043     4.0404288265     0.1235927682
C     -0.334287458     3.6248010803     -1.2253468319
C     -2.9095984167     1.8289437572     1.3532545858
C     -3.5998277155     0.9162457295     0.4559154317
C     -3.2047472836     1.2667021712     -0.8628559811
C     -2.3731025572     2.9188856679     0.6128632927
C     -2.5210046513     2.555530516     -0.7954663799


