60

 C     -1.3041559582     4.3792135809     -0.5631506895
C     -2.2267862781     3.6124601455     0.2759556698
C     -1.6805617874     3.438703961     1.5441222741
C     -0.047497616     4.4238084653     0.1543681221
C     -0.2692686802     3.9313160644     1.4560477936
C     0.9890440707     3.7759719206     -0.6173008347
C     -1.0631688556     3.542927042     -1.6600539427
C     0.3434269778     3.2561654697     -1.8111925908
C     -2.682162896     2.4314673914     -0.4212797219
C     -1.9564502583     2.3984540255     -1.6712686385
C     -2.8877220257     1.2087696637     0.2679207122
C     -1.6583007134     2.1700510485     2.1639970998
C     -2.3719963751     1.0575808697     1.6194997211
C     0.5654310467     2.9676767769     2.0499334837
C     -0.2953962222     1.929460544     2.6067732806
C     2.0002765903     2.9841852381     0.020096548
C     1.8037508055     2.5816050253     1.4251128668
C     2.6775266618     2.0690869652     -0.8210948176
C     0.7602616085     2.0559063839     -2.4210244469
C     2.0909140199     1.6505165057     -2.090851788
C     -1.5730115102     1.1731901155     -2.2637632165
C     -0.2119417493     1.0026600491     -2.7478951786
C     -3.0152873595     0.0313224554     -0.5687201904
C     -2.3683036087     0.0189480866     -1.8767919607
C     -3.199096929     -1.197082613     0.1127356574
C     -2.023198954     -0.2751099083     2.0957244307
C     -2.6272399375     -1.361826687     1.4397155239
C     0.1811454198     0.6336959363     2.884208931
C     -0.7480718218     -0.4996235837     2.8029183374
C     2.3415566341     1.3463227637     1.8461201483
C     1.5720760543     0.4248369142     2.6663007624
C     3.4034942603     0.9174519738     -0.309132249
C     3.2131306722     0.5435271317     1.0252480082
C     2.5688551323     0.359003494     -2.3895322247
C     3.4153053932     -0.0997446191     -1.31389492
C     0.2784459276     -0.3569739517     -2.945614032
C     1.6736193942     -0.6757502343     -2.7324668075
C     -1.9861754449     -1.2370833232     -2.4117990564
C     -0.6206219986     -1.4318808445     -2.8059027009
C     -3.0213901374     -2.4354544707     -0.5678301885
C     -2.4174360555     -2.4498757876     -1.804513164
C     -2.0807504948     -2.7222429546     1.5290253842
C     -2.3106576114     -3.3920213421     0.3101524859
C     -0.2001923092     -1.7984236076     2.8441749527
C     -0.8569470027     -2.9225113065     2.2106348517
C     2.0814971482     -0.8951813003     2.466955868
C     3.0178593786     -0.8589247139     1.3603880411
C     1.2444642247     -1.9901580599     2.652445675
C     3.0595810574     -1.4272946925     -1.0190528756
C     2.0666358532     -1.8615722047     -1.9951398918
C     2.9461166165     -1.8712508607     0.3538634108
C     -0.180152694     -2.7620125809     -2.2988648799
C     -1.2816152494     -3.3968338225     -1.744768591
C     -1.2267070075     -3.9719850484     -0.4224665464
C     1.14102074     -2.8828604684     -1.6901178227
C     0.1381167419     -3.7329664943     1.5885015205
C     1.4303107845     -3.1440466349     1.8399330131
C     2.1098786146     -3.014022704     0.604763771
C     0.041304266     -4.0803831393     0.2076122542
C     1.2372196468     -3.5711878492     -0.4397666321


