60

 C     3.8135880304     0.1245263894     -1.8457746952
C     4.0807731658     0.6901404447     -0.6045959905
C     3.3199102363     1.9439734159     -0.5320523186
C     2.8586642062     0.9911435307     -2.5742710475
C     2.4716709971     2.0362357627     -1.6914654799
C     1.8693223672     0.1474976369     -3.1324068077
C     3.384808862     -1.2208756938     -1.9737381899
C     2.2149992742     -1.212157193     -2.8451067551
C     3.0514997016     -1.9591077874     -0.8195232305
C     3.8252225654     -0.0403381042     0.5934782714
C     3.3394524255     -1.4181315163     0.5086496108
C     2.758750875     2.0469869071     0.7279233092
C     3.1591294348     0.8630578749     1.5043499692
C     1.4593163006     2.6350534538     0.9110183681
C     1.0861097828     2.4020416479     -1.5519112264
C     0.5938996963     2.8374797067     -0.2461743263
C     0.4956942476     0.5319009424     -3.1268985057
C     0.1448817649     1.7932475435     -2.4850821595
C     -0.4956942476     -0.5319009424     -3.1268985057
C     1.2378564458     -2.0671109535     -2.3102351198
C     1.7456859774     -2.59075733     -1.0643747075
C     -0.1448817649     -1.7932475435     -2.4850821595
C     0.8636033249     -2.9184900767     -0.0213692584
C     2.5301388909     -1.8889662241     1.5504435557
C     1.3914733348     -2.7643557548     1.3062238211
C     2.3569824894     0.4019046143     2.5699315881
C     2.1817655875     -1.0363075843     2.70109712
C     0.8776354545     2.3957271822     2.1844530294
C     1.2903537093     1.2431652459     3.0063625219
C     -0.502934743     2.5698807381     2.3744326579
C     -0.8636033249     2.9184900767     -0.0213692584
C     -1.3914733348     2.7643557548     1.3062238211
C     -1.2378564458     2.0671109535     -2.3102351198
C     -1.7456859774     2.59075733     -1.0643747075
C     -1.8693223672     -0.1474976369     -3.1324068077
C     -2.2149992742     1.212157193     -2.8451067551
C     -2.8586642062     -0.9911435307     -2.5742710475
C     -1.0861097828     -2.4020416479     -1.5519112264
C     -0.5938996963     -2.8374797067     -0.2461743263
C     -2.4716709971     -2.0362357627     -1.6914654799
C     -1.4593163006     -2.6350534538     0.9110183681
C     0.502934743     -2.5698807381     2.3744326579
C     1.0069983503     -1.5326381375     3.2616020984
C     -0.8776354545     -2.3957271822     2.1844530294
C     0.0926477345     0.6994883852     3.6250138971
C     -1.0069983503     1.5326381375     3.2616020984
C     -0.0926477345     -0.6994883852     3.6250138971
C     -1.2903537093     -1.2431652459     3.0063625219
C     -2.5301388909     1.8889662241     1.5504435557
C     -2.1817655875     1.0363075843     2.70109712
C     -2.3569824894     -0.4019046143     2.5699315881
C     -3.0514997016     1.9591077874     -0.8195232305
C     -3.384808862     1.2208756938     -1.9737381899
C     -3.8135880304     -0.1245263894     -1.8457746952
C     -3.3394524255     1.4181315163     0.5086496108
C     -3.3199102363     -1.9439734159     -0.5320523186
C     -2.758750875     -2.0469869071     0.7279233092
C     -3.1591294348     -0.8630578749     1.5043499692
C     -4.0807731658     -0.6901404447     -0.6045959905
C     -3.8252225654     0.0403381042     0.5934782714


