60

 C     -0.3490811302     -4.7128203565     0.108120711
C     1.0152897052     -4.337478194     -0.2080857292
C     1.6022936921     -3.8381934366     0.9672527
C     -0.6703560241     -4.1268916204     1.4224909552
C     0.4977381694     -3.6468107129     1.9673947955
C     -1.7542059017     -3.178760797     1.2684601972
C     -1.166066685     -4.0656013324     -0.8072846502
C     -2.1290891311     -3.2077030552     -0.1284404438
C     1.0407005136     -3.5331684952     -1.4250288073
C     -0.3481140297     -3.4606288168     -1.8614879474
C     1.8626047251     -2.3748634828     -1.5164727576
C     2.3275033193     -2.6543987114     0.9360985505
C     2.6469319255     -2.0166435134     -0.3224312034
C     0.613565007     -2.3167377296     2.4976120759
C     1.853346725     -1.7840245733     2.0291527716
C     -1.739277641     -1.9226150412     1.9637527243
C     -0.501374769     -1.437986449     2.6068448426
C     -2.5965401414     -0.9331180078     1.4313596362
C     -2.6236306363     -2.0426482224     -0.7781008614
C     -3.0577228795     -0.987998949     0.0608231317
C     -0.8101093545     -2.3135622117     -2.4591045787
C     -2.0586912662     -1.6564242144     -2.0387860251
C     1.4405496549     -1.256758855     -2.3875965855
C     0.1073734054     -1.2865734927     -2.8735719934
C     2.0814940058     0.0589947769     -2.2915299642
C     3.1494377981     -0.7243103136     -0.1965339689
C     3.0738148714     0.2539910448     -1.2809907203
C     2.12048271     -0.4144861195     2.0391442114
C     3.0886497343     0.0041072666     1.0643610517
C     -0.2393818054     -0.0053257609     2.7123127875
C     1.1053897425     0.5166795902     2.5100723701
C     -2.5069200359     0.4319053896     1.83281174
C     -1.3619536082     0.9209597985     2.5528017108
C     -3.1522539686     0.3640356944     -0.3985299716
C     -3.064557602     1.2268491942     0.7681613716
C     -1.9685346966     -0.289018612     -2.394434763
C     -0.6651754381     -0.0786579079     -3.0198859126
C     -2.5564665753     0.772060621     -1.6193577397
C     1.3535694605     1.2406245807     -2.6806314109
C     -0.068930423     1.1520218934     -2.9594184649
C     1.5550035983     2.5224880009     -2.0712765571
C     3.2545433455     1.5215174126     -0.7008458669
C     3.1938402081     1.3584479065     0.7609705901
C     2.4887141763     2.6520207314     -1.0294555413
C     1.3061069809     1.9509696706     2.2387740474
C     2.3646825404     2.3393629062     1.3116942836
C     2.0810709885     3.3010323419     0.2321735094
C     -1.1358356603     2.3188600036     2.4914408163
C     0.2203653889     2.8445159167     2.3493525118
C     -2.7456940049     2.5570289832     0.6465259101
C     -2.0020896577     3.1674168314     1.7114266953
C     -1.9921739547     2.1405460514     -1.7081688254
C     -0.7604496984     2.3099718122     -2.4212789977
C     0.2581450333     3.2067127253     -1.9501329623
C     -2.2605994792     3.0739136999     -0.6538944366
C     0.9415547655     4.0599206922     0.28579861
C     0.1429794943     4.0160824893     1.4946117638
C     -1.200158765     4.1772204688     1.124176632
C     0.0067273041     4.0646384242     -0.8748094042
C     -1.3090336261     4.0793117659     -0.3284061139


