60

 C     0.0128509541     -4.6089288695     -0.8947700294
C     1.393294961     -4.1259368004     -0.8243945758
C     1.6811558244     -3.8581583272     0.5022359848
C     -0.5911323418     -4.4053639881     0.42940752
C     0.4115217236     -4.0292948759     1.3026712263
C     -1.7174415475     -3.4978829513     0.3272529457
C     -0.6421875948     -3.708222572     -1.717671235
C     -1.803804631     -3.1224832618     -1.0637019735
C     1.5624807101     -3.0030662342     -1.7344024001
C     0.2770674786     -2.777247426     -2.3539844995
C     2.3661724888     -1.8711696979     -1.3714391748
C     2.3146635706     -2.6590871567     0.9407549267
C     2.7812856097     -1.6677241252     0.0219550703
C     0.3050606713     -2.9124470378     2.1856868987
C     1.5787064967     -2.2216601762     2.1072268881
C     -1.9507541474     -2.4866068     1.3305708051
C     -0.8874014563     -2.1343787024     2.2912677045
C     -2.8283621999     -1.4655632063     0.9346017097
C     -2.2818655485     -1.856163317     -1.4517569547
C     -3.1006330797     -1.2350888082     -0.4664526967
C     -0.1573804616     -1.4784147655     -2.710123938
C     -1.4995680952     -0.9852981777     -2.3485759486
C     2.1147902158     -0.7091435248     -2.130046605
C     0.8799746064     -0.5247500944     -2.8363672656
C     2.6054369359     0.5990087396     -1.7494700261
C     2.9734017175     -0.299157047     0.5133927487
C     3.0390740976     0.8352197656     -0.4197851593
C     1.6714187246     -0.9179183613     2.5191571559
C     2.527477304     0.0029378169     1.8280844767
C     -0.7856489554     -0.7450497196     2.7741393799
C     0.5125972887     -0.2205064412     3.0177948619
C     -2.9057577781     -0.1731261498     1.621097034
C     -1.8409514425     0.2379708674     2.4885347332
C     -3.4458915424     0.1135388365     -0.604808973
C     -3.4622205335     0.7489114304     0.7174108583
C     -1.7404655051     0.4414305656     -2.3478747625
C     -2.8043760492     0.9592954879     -1.508776719
C     0.628179673     0.8812622619     -2.9270156171
C     1.8133456187     1.5767544959     -2.4471478861
C     -0.6685749371     1.3925409036     -2.7012848953
C     1.7261449239     2.8848718035     -1.9851499808
C     2.875285463     2.1893477666     0.0788332696
C     2.3643242854     3.2037713191     -0.7426610641
C     2.0861337186     1.326397366     2.2207225324
C     0.8192695936     1.1835518202     2.933852845
C     2.3263449812     2.4222933268     1.4286882675
C     -1.5343424916     1.6427341234     2.4960899505
C     -0.1803636293     2.1244390248     2.7405358241
C     -3.0050890017     2.0709506305     0.5885507694
C     -2.6872376223     2.2693944572     -0.8377848377
C     -2.1240788909     2.5655585479     1.5565590642
C     -0.7316124756     2.7702837329     -2.2259110197
C     0.4305062804     3.5071538171     -1.9831877643
C     -1.7099164595     3.1479731215     -1.1898565646
C     1.4324183767     4.0407413527     0.0478672889
C     1.3526577413     3.5045082005     1.3677563073
C     0.0783602829     3.3140675819     1.956317346
C     -1.1212679745     3.5612939943     1.1775355254
C     0.2795710378     4.2313386562     -0.703887948
C     -1.0126466634     3.9502968008     -0.1682610048


