60

 C     -0.2953960352     -4.7659890564     -0.3727068233
C     -1.1284567271     -4.4188317579     0.7775250236
C     -2.2331893823     -3.7478189711     0.2841235769
C     -0.8084355744     -4.0795688903     -1.5630294738
C     -2.0309575687     -3.5104255147     -1.1911136721
C     0.2312622208     -3.2490081957     -2.1055700119
C     0.9942108713     -4.3325000536     -0.1355689201
C     1.424923361     -3.5712686121     -1.3028150565
C     -0.271955334     -3.7406434981     1.7492439896
C     1.0675430202     -3.6906466847     1.1865758325
C     -0.7452359176     -2.5899570934     2.3847311715
C     -2.6766631644     -2.5207456542     0.8626384894
C     -2.0368982251     -2.0175881521     2.0114142931
C     -2.2820350648     -2.1534636761     -1.4267393917
C     -2.8861310519     -1.5867304686     -0.2188457157
C     -0.0015095033     -1.874777759     -2.4349020817
C     -1.3353976892     -1.3263065511     -2.1565599507
C     1.1316729009     -0.9268648784     -2.4276928728
C     2.3764428259     -2.6329434601     -1.114964336
C     2.3670016165     -1.4041247711     -1.8928731609
C     1.9136179457     -2.5687803145     1.372877358
C     2.799723979     -2.2705213949     0.2638768572
C     0.1354241752     -1.4744283563     2.681760327
C     1.4701617096     -1.4267799588     2.1965957172
C     -1.9625734501     -0.6018171741     2.2069768673
C     -0.6563607605     -0.2692685743     2.733650917
C     -2.8601545045     -0.2202875487     -0.0140692483
C     -2.5315277712     0.3160413019     1.2984084175
C     -1.5310923713     0.078859833     -2.101398939
C     -2.5275150085     0.6012568244     -1.1597615271
C     0.9094883397     0.5150434373     -2.4299613628
C     -0.4624378042     1.0023639427     -2.4956361394
C     1.898655665     1.4403092267     -1.8848462572
C     3.218948237     -0.5099560665     -1.2208414112
C     3.3791986905     -1.0290757752     0.16546364
C     2.9902260229     0.8481857137     -1.1644628147
C     2.0668576657     -0.0984086591     2.0399729293
C     3.0890530756     0.0446525703     1.0502672936
C     3.1687203828     1.2444675092     0.2458230426
C     -0.1255816093     1.0285630188     2.6092062018
C     1.3093007829     1.1155001715     2.3660260716
C     -2.2102867302     1.7201188764     1.4274702034
C     -1.034644698     2.1098444905     2.1974950447
C     -2.6708630581     1.9612903544     -0.9745201708
C     -2.651966925     2.5541729636     0.3554587711
C     -0.6960005474     2.3833901332     -2.3991272943
C     -1.9677973182     2.8735942812     -1.8516998157
C     1.5589974487     2.8208656902     -1.525365782
C     0.3146865056     3.3438876426     -1.9991597477
C     2.6178470141     2.3990257172     0.6812176652
C     1.7881244871     2.3710489035     1.880148413
C     2.0658128702     3.3548781393     -0.2693588575
C     -0.4806768974     3.4045195431     1.9334543828
C     0.9331215134     3.477666687     1.7596851713
C     1.2262644078     4.1928199696     0.5036986118
C     -2.1407540904     3.8892551012     0.1826040213
C     -1.7938464448     4.0995397611     -1.2417746379
C     -0.3766893676     4.4178470066     -1.2995044171
C     -1.0655412818     4.2882182974     0.9561168481
C     0.0312842415     4.7123003133     0.0103626409


