60

 C     -3.6757448729     -0.8401391705     -2.0107330906
C     -2.7816627154     -0.4191356329     -2.9359051036
C     -2.595647247     1.0599363527     -2.7601611379
C     -4.2625377669     0.374221629     -1.3626608277
C     -3.326164295     1.4627313719     -1.6239245662
C     -4.5485479248     0.0252963186     -0.0807731993
C     -3.2498315934     -1.7573653549     -0.9710603193
C     -3.9536016382     -1.3423105185     0.1819634834
C     -1.8449327076     -2.1751371979     -0.8906379014
C     -1.5039952954     -1.0185945763     -3.0587354699
C     -0.9887372942     -1.9121325809     -2.0370973616
C     -1.2474863092     1.319899888     -2.9178973168
C     -0.6675220597     0.0761895698     -3.4262856423
C     -0.4632770655     2.0161685548     -1.915499965
C     -2.5897099964     2.0844166201     -0.5247792169
C     -1.1105595854     2.3053903754     -0.6532427563
C     -4.1824737916     0.8673438421     0.9815137994
C     -3.1444098518     1.8543004618     0.7742507437
C     -3.3500884405     -1.3096460799     1.4342764161
C     -3.6547769367     -0.0018825482     2.0021186122
C     -1.2118451146     -2.2880470946     0.4209540401
C     -2.0095743744     -1.8709655387     1.6064366306
C     0.2483903455     -2.3760418204     0.538780455
C     0.4632770655     -2.0161685548     -1.915499965
C     1.1105595854     -2.3053903754     -0.6532427563
C     0.6675220597     -0.0761895698     -3.4262856423
C     1.2474863092     -1.319899888     -2.9178973168
C     0.9887372942     1.9121325809     -2.0370973616
C     1.5039952954     1.0185945763     -3.0587354699
C     1.8449327076     2.1751371979     -0.8906379014
C     -0.2483903455     2.3760418204     0.538780455
C     1.2118451146     2.2880470946     0.4209540401
C     -2.2503361126     1.7976172264     1.9215524181
C     -2.6734195061     0.6687344315     2.7285602536
C     -0.8703160212     2.1226526198     1.8424305225
C     -1.3513801327     -1.4453462378     2.7683148244
C     -1.714490999     -0.1315244521     3.3489676606
C     0.8703160212     -2.1226526198     1.8424305225
C     0.066374591     -1.5991070471     2.9207523392
C     2.2503361126     -1.7976172264     1.9215524181
C     2.5897099964     -2.0844166201     -0.5247792169
C     3.1444098518     -1.8543004618     0.7742507437
C     2.595647247     -1.0599363527     -2.7601611379
C     2.7816627154     0.4191356329     -2.9359051036
C     3.326164295     -1.4627313719     -1.6239245662
C     3.2498315934     1.7573653549     -0.9710603193
C     3.6757448729     0.8401391705     -2.0107330906
C     4.2625377669     -0.374221629     -1.3626608277
C     4.1824737916     -0.8673438421     0.9815137994
C     3.9536016382     1.3423105185     0.1819634834
C     4.5485479248     -0.0252963186     -0.0807731993
C     2.0095743744     1.8709655387     1.6064366306
C     2.6734195061     -0.6687344315     2.7285602536
C     3.3500884405     1.3096460799     1.4342764161
C     3.6547769367     0.0018825482     2.0021186122
C     -0.066374591     1.5991070471     2.9207523392
C     -0.5360953811     0.4936642079     3.6985217757
C     0.5360953811     -0.4936642079     3.6985217757
C     1.3513801327     1.4453462378     2.7683148244
C     1.714490999     0.1315244521     3.3489676606


