60

 C     -3.6903998576     2.1202961917     0.7102271629
C     -3.8825479494     0.7241604957     0.6561977001
C     -3.1468568584     0.061517492     1.7108373747
C     -2.678868386     2.3415370081     1.6917008107
C     -2.3211117004     1.084453167     2.3202738613
C     -1.6164569055     3.0900860473     1.1294941568
C     -3.075969374     2.4738236932     -0.5522811335
C     -1.8704655163     3.1749359205     -0.3213056212
C     -3.6841686313     0.2548209684     -0.6946093634
C     -3.0390693391     1.3473568802     -1.4387940471
C     -3.2669931441     -1.0405438096     -0.8694697424
C     -2.657066042     -1.2552430921     1.523555942
C     -2.922757167     -1.8798174498     0.2586313266
C     -1.4703077112     -1.6587589129     2.2717495849
C     -0.9797217492     0.8011693338     2.7116068856
C     -0.626847406     -0.6128945971     2.8773594253
C     -0.2962356955     2.9390570473     1.6106199297
C     0.051435969     1.800078588     2.4514573067
C     0.6898822386     3.4910098189     0.7461601465
C     -0.7891530289     3.0561637356     -1.2243548944
C     0.4475323664     3.5349385149     -0.6848168259
C     -1.9008315781     1.0779552446     -2.2603579363
C     -0.7753294381     2.0029294054     -2.2249336517
C     -2.3842059374     -1.3782681295     -1.9733249954
C     -1.6767507825     -0.3310663809     -2.6598784495
C     -2.0530575124     -2.8994098832     -0.2509533136
C     -1.7663480972     -2.6337597006     -1.6568377734
C     -0.8540735041     -2.8934014556     1.8820323514
C     -1.0835756624     -3.4534946676     0.5692067516
C     0.5176023765     -3.1574109266     2.2035882628
C     0.7534096415     -0.912989948     3.0976359345
C     1.2914830407     -2.2064879495     2.8158426835
C     1.4424295029     1.3702790043     2.4005629782
C     1.7435012393     0.0334207     2.6866325084
C     2.0971573322     3.2372521227     0.9105706963
C     2.4242812619     2.0495549244     1.5961859133
C     1.7071006877     3.299060332     -1.3167869772
C     2.767756015     3.2885307149     -0.3643728374
C     0.5553834355     1.5317007881     -2.6505168853
C     1.7624790347     2.1411742429     -2.1602098583
C     -0.413167765     -0.7025139192     -3.20161499
C     0.714497867     0.2063666788     -3.0762784221
C     -0.4967445043     -2.9413584641     -2.1733476614
C     0.0957020239     -2.011343104     -3.0349961308
C     0.2401807347     -3.8319310537     0.0079185198
C     1.2195510034     -3.6572914435     1.0125644778
C     0.5590826589     -3.4908697434     -1.301856474
C     2.5100416824     -2.0476827652     2.0064871551
C     2.7825013968     -0.7080146824     1.9125471556
C     2.3788056908     -2.8583909666     0.8091681372
C     3.3241236358     1.2713200106     0.7022557788
C     3.3766186926     2.0127074633     -0.5140768295
C     2.8822361309     1.3334083474     -1.6815301435
C     3.2923744174     -0.1316556571     0.6946237551
C     1.8998327245     -0.5770900083     -2.7006898099
C     1.5076925899     -1.905702658     -2.6609747595
C     1.7918439836     -2.7501456824     -1.5569217889
C     2.6267073597     -2.2624653987     -0.4822678561
C     2.8330951659     -0.0748322115     -1.7340064999
C     3.1327591436     -0.8862302211     -0.5553292017


