60

 C     1.2767168472     -4.3595950997     -1.2165884783
C     0.9525703681     -4.7525415027     0.1311991953
C     -0.4021853488     -4.4401803257     0.3135434774
C     0.089151061     -3.8096377945     -1.8470025988
C     -0.9804538881     -3.8891100703     -0.9276854539
C     0.3888914218     -2.5088994912     -2.4487282174
C     2.1567466399     -3.268090734     -1.1506272979
C     1.7457317189     -2.1951769862     -2.0508135246
C     1.6367585622     -3.7977538762     1.0195235283
C     2.4669876473     -2.9357455893     0.2379309976
C     -0.5850575523     -3.6672463628     1.5379150285
C     0.7418429444     -3.1937019232     1.9526480167
C     -1.6420775494     -2.8041894136     1.5938237973
C     -1.9457723216     -2.8397909466     -0.8670843331
C     -2.4666083275     -2.5193052472     0.4197877979
C     -0.5524267704     -1.478281312     -2.4884966236
C     -1.8544789626     -1.7204386909     -1.832424439
C     -0.0568293393     -0.0956523245     -2.62763315
C     2.1204161701     -0.8964790077     -1.7807363474
C     1.3186631622     0.1957121346     -2.3331283481
C     2.6323897414     -1.590539302     0.5894100343
C     2.8376289965     -0.6360813239     -0.5169260769
C     0.9137626302     -1.8406372407     2.3542188207
C     2.0171837423     -1.0747355367     1.7988392705
C     -1.5586732316     -1.5634141825     2.3551689338
C     -0.2824188137     -1.0755165932     2.7574107437
C     -3.1098996189     -1.2750870047     0.6676207301
C     -2.5683684962     -0.668367476     1.8865916669
C     -2.6953274068     -0.6255905452     -1.6403540112
C     -3.4281146425     -0.4457610181     -0.3995476601
C     -1.0139008298     1.002237012     -2.6013586106
C     -2.3504101834     0.7156960139     -2.1184250972
C     -0.5472585145     2.32585939     -2.4629497439
C     1.7794186216     1.5576288199     -2.1166073941
C     0.8604934119     2.6311087645     -2.331954116
C     3.1026047846     0.6630387484     -0.2054054781
C     2.8219905129     1.7643877062     -1.1265931647
C     2.1135239122     0.3510685683     2.0534241952
C     2.9337693427     1.1509665854     1.1679070849
C     -0.1821233288     0.3249083657     2.9338465318
C     1.0702393419     1.0264173683     2.7316833103
C     -2.4289139584     0.7485407216     1.9981236913
C     -1.2426370409     1.2266841728     2.6203758135
C     -3.5476913715     0.9557400191     -0.1726245757
C     -3.0362849376     1.6596600011     -1.330015719
C     -3.012558     1.5754807615     0.9703894298
C     -1.2906499422     3.3063882108     -1.6314542772
C     -2.4010254955     2.8517225671     -0.8972395923
C     -2.3435769595     2.8227264242     0.5431928853
C     0.9637769542     3.840911564     -1.555002244
C     -0.3598485806     4.1230823239     -1.0006721721
C     2.8356485085     2.9319507162     -0.3411521326
C     2.7812895262     2.5281611475     1.079655477
C     1.8847195374     3.9486384577     -0.5253836133
C     0.766306951     2.4088369846     2.4618703273
C     -0.6506325996     2.5143645833     2.271454856
C     -1.1961863263     3.3348084773     1.2191312707
C     -0.2597914193     4.1466457748     0.444386801
C     1.6538767334     3.2035660414     1.6819456628
C     1.1290816659     4.1306084953     0.7515950151


