60

 C     1.7054794554     3.4437078095     1.0719453811
C     0.8274059407     3.913363223     0.1179632641
C     1.3473344599     3.5500477223     -1.2161964738
C     2.8123395248     2.795794196     0.3821483466
C     2.5223745304     2.7624069046     -1.038113236
C     3.1035412151     1.6156185611     1.0730453168
C     1.2418469983     2.5758353557     2.1337834692
C     2.162026941     1.4709806125     2.2035792742
C     -0.155637113     2.3784997051     2.3267078803
C     -0.5637863804     3.6117917599     0.1786077544
C     -1.1018016121     2.9588147158     1.339295457
C     0.2576290293     3.0739330387     -1.958067171
C     -0.9741888368     3.19455084     -1.1454234846
C     0.4114400862     1.9368874712     -2.7614251107
C     2.6595735545     1.5161719778     -1.7538102951
C     1.6175875652     1.1667258655     -2.6768379748
C     3.4735313613     0.4700265878     0.3545919645
C     3.2739767519     0.416122016     -1.0637406989
C     3.2290332403     -0.8485923533     0.9000202196
C     1.7511701193     0.1850461702     2.6208527836
C     2.3751290993     -1.0127305747     2.0207213053
C     -0.5245726681     1.1418647844     2.9389050217
C     0.4120249316     0.0832775938     3.1056538709
C     -1.8488740248     0.5572678469     2.7651611391
C     -2.3520814791     2.336733132     1.1417953842
C     -2.792969768     1.1930996326     1.9680225642
C     -2.0729189904     2.3439351441     -1.3386682118
C     -2.8987557688     2.1450807476     -0.1765850866
C     -0.6998576265     1.0271417047     -2.9496426734
C     -1.9628429598     1.2304252632     -2.3297464787
C     1.2635903981     -0.2216938251     -2.9352464967
C     -0.1581213775     -0.2934222759     -3.1262187553
C     2.9982114421     -0.9724851577     -1.4040592291
C     3.1591785116     -1.7702636869     -0.2176697759
C     1.971568295     -1.3021541685     -2.3493220616
C     2.492519276     -2.9983269303     -0.079411904
C     1.6686062163     -2.2819595719     2.12590271
C     1.8363273678     -3.2796224414     1.1729043129
C     -0.3328389298     -1.1657136165     3.0078761349
C     -1.7136587614     -0.8764734879     2.6912326527
C     0.2538541754     -2.3089704864     2.5467793092
C     -2.4360919985     -1.6677959105     1.7398011717
C     -3.6915159053     0.4018511566     1.2223363138
C     -3.7610610963     1.0122755286     -0.1105079494
C     -3.4800707466     -0.9888628199     1.0299179221
C     -2.7858243224     0.0658609276     -2.1404078643
C     -3.7680421591     0.0227511621     -1.0775775792
C     -3.6669708524     -1.2496637058     -0.3991035102
C     -0.9061360819     -1.4484293586     -2.7182493772
C     -2.2261612294     -1.2397060838     -2.2298192204
C     -2.7196844428     -2.013666793     -1.0730588354
C     1.2440564784     -2.5474409555     -2.1460312978
C     1.6158259663     -3.425763999     -1.1140331222
C     -0.2039791727     -2.5733430672     -2.2508783149
C     0.5056900632     -3.8567292191     0.8793724025
C     -0.4854274004     -3.2089016175     1.6651235459
C     -1.7120465636     -2.7758637074     1.0774117736
C     -1.8455763664     -2.923331497     -0.3816332725
C     0.3838235699     -3.9580626223     -0.4979402219
C     -0.7352018302     -3.3879190231     -1.1420329623


