60

 C     0.2134209931     -4.6194711637     -0.7635023114
C     1.543662287     -4.0501289573     -0.8377404193
C     1.9503390077     -3.717470111     0.4550276196
C     -0.2718742634     -4.4018720096     0.604889012
C     0.7872941864     -3.9308035906     1.3814080652
C     -1.4557946472     -3.5972146468     0.585340957
C     -0.5908752996     -3.8087308087     -1.564734635
C     -1.7204087665     -3.2921079187     -0.8218067677
C     1.5478661598     -2.9513075449     -1.7881198091
C     0.1917045589     -2.830159625     -2.2885056033
C     2.316502181     -1.7685226697     -1.5439690809
C     2.5657020951     -2.4837159295     0.7851760914
C     2.8877150999     -1.5078460571     -0.2127686231
C     0.6939458775     -2.7892967285     2.2189315976
C     1.9115706587     -2.0284450383     1.9978718773
C     -1.6454316741     -2.5512549553     1.5583972993
C     -0.5308245705     -2.0605637819     2.3752400497
C     -2.646913393     -1.6254436582     1.2381526356
C     -2.3287766921     -2.0865456333     -1.1901791285
C     -3.1142148784     -1.5049098016     -0.1435585701
C     -0.3639172936     -1.5643277845     -2.610655998
C     -1.6978683694     -1.1674442198     -2.1551953511
C     1.9058114787     -0.635763736     -2.2815361806
C     0.5794272795     -0.5352875056     -2.8295561938
C     2.3780556634     0.6943151772     -1.9910340238
C     3.0821577055     -0.1267160131     0.2156199039
C     3.0061148401     0.9789343833     -0.753565133
C     1.9611063772     -0.7099668963     2.3386439966
C     2.7341484454     0.2070072717     1.5557225898
C     -0.4852104256     -0.6247761994     2.7290828813
C     0.7915230578     -0.0146461988     2.8348659659
C     -2.7637609329     -0.3276923927     1.8613258647
C     -1.6197086958     0.272786466     2.4772809297
C     -3.6578993112     -0.2492853333     -0.3089073342
C     -3.6045377853     0.4418535514     1.0013534526
C     -2.0603608762     0.2398250091     -2.1406396767
C     -3.1737463054     0.64024241     -1.3066432208
C     0.2211922366     0.8494362291     -2.8474733995
C     1.4160654252     1.6200355861     -2.5440027295
C     -1.065956549     1.2854486622     -2.4710411036
C     1.3334249585     2.9144225701     -2.0815747475
C     2.9150176386     2.3425402169     -0.2852774803
C     2.2636308847     3.3280204766     -1.0596874473
C     2.282501774     1.5221571901     1.9325899071
C     1.02121791     1.3856036459     2.6386526976
C     2.5435373292     2.6153260372     1.1276388581
C     -1.399699024     1.7295865608     2.2866587234
C     -0.0428959643     2.3016741395     2.3913514957
C     -3.3567362137     1.7603220233     0.7765373956
C     -3.1643274786     1.9405864194     -0.6933992435
C     -2.310423272     2.4429196838     1.4421877684
C     -1.1410711144     2.6492877596     -1.8834351037
C     0.0132943649     3.4499610729     -1.7557861939
C     -2.1733563574     2.8730514041     -0.8833369941
C     -1.7860209012     3.3836931715     0.4594067269
C     1.5490997975     4.2254130797     -0.17435506
C     1.6347073435     3.7035511562     1.1713556264
C     0.3065223356     3.5049790014     1.6901437252
C     0.2106290074     4.2653414166     -0.5528605617
C     -0.5862981033     3.9933951372     0.6339948114


