52 

C 3.509160 1.876990 -1.311370
C 1.444470 2.642980 -0.807600
C 2.789300 2.636650 -0.351570
C 0.388380 2.599150 0.140770
C -0.863370 2.403620 -0.500750
C -3.192800 1.965630 -0.026140
C -1.910510 2.339070 0.456290
C -2.163190 1.109970 -2.126040
C -0.951780 1.754600 -1.760710
C -3.296980 1.374360 -1.313000
C 3.580040 0.677860 -0.554060
C 3.423790 0.811590 0.850990
C 2.857120 2.108640 0.964890
C 0.524120 2.169880 1.487560
C 1.818780 1.711500 1.848440
C 2.732720 -1.735520 -0.225500
C 2.568630 -1.556440 1.173620
C 3.084110 -0.583500 -0.977730
C 2.807460 -0.223890 1.602260
C 1.900880 0.438260 2.471810
C 1.563780 -2.439870 1.649310
C 0.739660 -1.765010 2.588420
C 0.888260 -0.411310 2.990760
C -0.323490 0.328990 2.999650
C -1.743540 1.908360 1.799080
C -0.463500 1.559850 2.305480
C 1.887700 -2.795400 -0.648640
C 1.241500 -3.252520 0.530310
C 2.351090 -0.197480 -2.131050
C 2.567980 1.205880 -2.136160
C -0.098870 -2.899500 -1.340260
C 1.132760 -2.328680 -1.757110
C 1.246580 -1.055710 -2.376030
C -1.134330 -2.181330 -1.994930
C -1.017480 -0.989300 -2.757760
C 0.165000 -0.203760 -2.723720
C -0.621800 -1.936760 2.223150
C -0.961040 -2.505050 0.966770
C -0.093640 -3.162990 0.055090
C 0.181190 1.177030 -2.392620
C 1.339460 1.908210 -2.018210
C -2.188180 -0.187550 -2.702450
C -3.012290 -0.906030 -1.796330
C -1.197330 -0.771500 2.795300
C -2.403340 -0.292760 2.218430
C -2.789670 -0.927950 1.008580
C -2.061080 -1.913390 0.291270
C -2.205710 -1.859380 -1.120320
C -2.843780 1.046840 2.051430
C -3.815110 1.260710 1.037930
C -3.734880 0.052040 -1.037120
C -3.646220 0.013920 0.379600
