52 

C -1.856050 -1.251340 2.276670
C -2.371250 0.071010 2.327200
C -3.259390 0.571750 1.338800
C -0.531570 -1.547460 2.694490
C 0.302010 -0.405780 2.829640
C 1.663020 -0.716910 2.570020
C -3.336350 1.979210 1.166870
C -2.077990 2.256290 1.763720
C 2.097770 1.595820 1.830970
C 0.705830 1.861400 1.923450
C -0.124600 0.929050 2.599920
C -1.517870 1.190170 2.516140
C 2.573250 0.323260 2.244450
C -2.988990 1.996780 -0.209900
C -3.074240 0.776750 -0.931550
C -2.426960 0.399040 -2.137730
C -1.745720 2.602790 -0.531620
C 0.413410 2.534500 -1.547410
C -0.970270 2.237120 -1.663660
C -1.313400 1.179460 -2.546880
C 2.357050 2.678410 -0.336140
C 0.953780 2.889310 -0.283050
C 0.190130 2.698500 0.898850
C -1.220400 2.802530 0.772450
C 2.952590 2.080130 0.805710
C -2.144670 -0.952350 -2.470160
C -0.433070 0.260720 -3.177260
C -0.950640 -1.060530 -3.231100
C -2.137780 -1.829390 -1.353360
C -2.580200 -1.442920 -0.060530
C -3.168300 -0.164200 0.127790
C -2.062210 -2.044380 1.116910
C -1.036820 -2.714750 -1.496380
C -0.543840 -3.253900 -0.278690
C -1.092880 -3.077450 1.018940
C 1.339390 1.715270 -2.245900
C 0.928720 0.498980 -2.852890
C 1.057390 -1.938220 -2.238030
C -0.307820 -2.141480 -2.571710
C -0.202050 -2.787490 2.086070
C 1.552870 -2.457590 -1.012790
C 0.838430 -3.122390 0.018750
C 1.037760 -2.837660 1.395570
C 1.986530 -1.856070 1.786390
C 1.646310 -0.670000 -2.485460
C 3.170530 0.741090 -1.058210
C 2.545090 1.926930 -1.526230
C 2.675520 -0.506870 -1.520810
C 3.642350 0.964130 0.262410
C 2.572400 -1.567730 -0.582540
C 2.845490 -1.322810 0.789270
C 3.427670 -0.090710 1.188510
