52 

C -2.164390 0.098590 2.314210
C -2.713890 1.304230 1.803300
C -0.440140 -1.469720 2.733250
C -0.834370 -0.105910 2.767830
C 1.331870 0.738850 2.480130
C -0.052630 1.052580 2.516170
C -0.439470 2.179820 1.744030
C -1.783930 2.247770 1.292020
C 2.066390 1.712460 1.752740
C 0.936330 -1.806760 2.823630
C 1.697060 -0.627610 2.606120
C 3.133930 1.321070 0.902090
C -3.794220 1.222060 0.885400
C -2.066540 2.359680 -0.095090
C -3.302710 1.710610 -0.354040
C 1.750440 2.837810 0.946390
C 0.339320 2.901470 0.801070
C -3.652300 -0.156110 0.574030
C -3.778420 -0.397860 -0.819560
C -3.405330 0.817090 -1.452910
C 0.114350 2.850360 -0.600090
C -1.078020 2.272520 -1.110840
C -2.989750 -1.440070 -1.374770
C -2.291300 -0.903180 -2.488490
C -1.066800 -1.619950 -2.430770
C -1.098660 1.267710 -2.114060
C -2.283170 0.498760 -2.262790
C 1.264820 2.476790 -1.343950
C 1.195790 1.368660 -2.229280
C 0.060240 0.590120 -2.577000
C 0.067720 -0.821250 -2.733210
C 1.190350 -1.623090 -2.396760
C -2.138550 -2.142870 -0.481470
C -2.004290 -1.954200 0.919560
C -2.733230 -0.839980 1.413120
C -0.895810 -2.348180 1.714840
C -1.038890 -2.491070 -1.309680
C 1.180670 -2.546060 -1.317640
C 0.064390 -2.896850 -0.513080
C 0.092520 -2.967560 0.904890
C 1.170170 -2.771940 1.808660
C 2.998380 -1.409410 -1.255570
C 2.273340 -2.317940 -0.439880
C 2.213740 -2.283910 0.978460
C 2.367710 0.569380 -2.293920
C 2.379110 -0.846400 -2.402710
C 3.259910 1.956520 -0.361540
C 2.219150 2.922090 -0.391380
C 3.358460 0.937560 -1.345620
C 2.608360 -1.077020 1.614160
C 3.496310 -0.257470 -0.591100
C 3.215950 -0.092220 0.791100
