52 

C 0.421640 -3.376550 0.603060
C -0.442520 -2.827270 1.586970
C -0.241260 -1.679950 2.399200
C 1.571450 -2.550950 0.489870
C 2.981680 -0.682630 0.936520
C 1.895210 -1.486500 1.372310
C 0.973540 -0.949970 2.309920
C 1.071280 0.430710 2.627180
C -0.080670 1.209480 2.915320
C 3.558850 -0.602790 -0.358440
C -1.279170 0.514990 3.227900
C -1.309120 -0.846280 2.824800
C -1.690800 2.290040 1.610980
C -2.203510 1.286760 2.475290
C -2.059520 2.567980 0.268110
C 1.879000 2.218860 1.111350
C 0.516570 2.525080 0.853340
C -0.317050 2.239600 1.966910
C 3.253760 0.654990 1.327910
C 2.129600 1.165130 2.029640
C -2.366950 -0.936130 1.881730
C -2.368410 -1.900260 0.839150
C -1.573410 -3.074500 0.764530
C -2.807300 0.376820 1.567600
C -3.163470 0.723900 0.237510
C -3.065730 1.930440 -0.504870
C -3.076560 -0.192700 -0.843580
C -2.636960 -1.497400 -0.495780
C -1.789780 -2.173700 -1.413040
C -1.362430 -3.275220 -0.625300
C 0.025680 -3.547350 -0.749890
C -2.909400 0.510570 -2.065830
C -1.756010 -0.019670 -2.702250
C -1.205120 -1.279880 -2.348860
C -3.091830 1.911690 -1.924510
C 0.917140 -0.232310 -2.513680
C 0.204890 -1.447640 -2.334100
C 0.633180 -2.583910 -1.597960
C 2.281300 -0.279970 -2.122150
C 2.721100 -1.315930 -1.256240
C 1.847210 -2.374210 -0.891860
C -1.021160 1.193980 -2.761270
C 0.360820 1.073030 -2.457990
C 3.107250 0.791610 -1.690940
C -1.728120 2.250740 -2.128890
C 2.316840 1.874550 -1.223020
C 0.934880 1.982860 -1.531090
C 2.842410 2.122720 0.072590
C 0.136750 2.570520 -0.514190
C -1.230080 2.699200 -0.876990
C 4.023490 1.405820 0.400460
C 4.170780 0.611590 -0.767410
