52 

C -2.799480 0.982640 2.339290
C -2.589020 -0.410290 2.518210
C -0.082790 -2.899790 1.509260
C -1.273340 -2.239040 1.912510
C -1.324250 -1.038180 2.668730
C -1.627830 1.773020 2.201260
C -0.344290 1.210450 2.430790
C -0.203010 -0.169310 2.735540
C 2.123950 0.010170 2.266440
C 1.017800 -0.851840 2.489920
C 1.051690 -2.155920 1.928970
C -1.851310 2.654820 1.110870
C 0.699230 1.925490 1.785550
C 2.004100 1.386740 1.939030
C 0.051750 -3.454890 0.209170
C 1.963440 -2.467240 0.885780
C 1.359180 -3.111750 -0.225960
C -0.689460 -3.019280 -0.921030
C -1.852500 -2.285260 -0.567330
C -2.151840 -2.089440 0.806910
C -2.296500 -1.382600 -1.569620
C 0.017080 -2.508360 -2.041850
C -0.385510 -1.477730 -2.931920
C -1.734480 -1.046190 -2.829550
C 2.965580 -0.872350 -0.645250
C 2.014800 -1.185690 -1.652420
C 1.304610 -2.399080 -1.452990
C 3.992550 0.728900 0.905300
C 3.254810 -0.338780 1.481690
C 2.919300 -1.442940 0.654250
C -2.965010 -0.240380 -1.054950
C -3.283230 -0.061660 0.317380
C -2.966100 -1.035980 1.300510
C -2.591910 0.850220 -1.884310
C -3.383210 1.147420 1.055320
C -2.887170 2.206140 0.249420
C -2.413280 2.002310 -1.073570
C -1.834300 0.362110 -2.981670
C -0.532090 0.927640 -3.011750
C 1.099560 2.224560 -1.738480
C -0.240510 2.030870 -2.166510
C -1.118780 2.573930 -1.191740
C 3.606710 0.373440 -0.414240
C 3.101600 1.475420 -1.153790
C 2.013930 1.174020 -2.015530
C 1.529140 -0.096740 -2.423660
C 0.281430 -0.233770 -3.087610
C 2.811610 2.405660 -0.120830
C 3.096470 1.806340 1.134600
C -0.825330 2.897190 0.159500
C 1.459270 2.691250 -0.446470
C 0.506930 2.693700 0.606830
