52 

C 1.364800 2.612950 -0.641260
C 2.433020 1.820390 -1.138600
C 3.236940 1.377620 -0.055000
C 0.243180 2.620300 -1.512150
C 4.072070 0.365370 -0.597550
C 3.262720 0.026830 -1.714160
C 2.766740 -1.234890 -1.291550
C -2.109450 2.023020 -1.464260
C -1.361120 1.139120 -2.286050
C 0.001290 1.527040 -2.385590
C 0.949970 0.499670 -2.632640
C 2.243060 0.890410 -2.194780
C -0.703540 -1.312780 -2.453470
C 0.648410 -0.883410 -2.520020
C 1.498680 -1.700770 -1.729180
C 1.084470 -2.636060 -0.744220
C 4.059990 -0.378930 0.611710
C 3.234020 -1.383250 0.041160
C 1.371310 -2.609030 0.646280
C 2.439540 -1.812490 1.137070
C 3.258770 -0.010240 1.724620
C 2.765710 1.244280 1.277900
C 1.499040 1.693050 1.736890
C 2.246350 -0.887000 2.196610
C -0.002930 -1.531940 2.383060
C 0.948800 -0.507650 2.631330
C 0.644190 0.875010 2.522160
C -2.105610 -2.022100 1.462190
C -1.363030 -1.135360 2.286110
C -1.639880 0.254490 2.376510
C -0.702760 1.318870 2.449920
C -1.021150 2.520880 1.764150
C -0.514540 -3.350460 0.550830
C 0.241870 -2.622280 1.506890
C -1.902250 -3.052620 0.506630
C -0.207410 3.207080 0.824260
C 1.087480 2.628850 0.751330
C -1.902360 3.049030 -0.504640
C -0.514630 3.345780 -0.555160
C -2.993170 1.832390 0.837650
C -2.075600 2.914430 0.898310
C -2.759820 0.659250 1.602970
C -3.113640 -1.596420 0.557140
C -3.397170 -0.210350 0.678840
C -2.070730 -2.914170 -0.896530
C -2.989830 -1.833340 -0.837490
C -3.116300 1.598240 -0.557490
C -3.396940 0.211390 -0.677100
C -2.760650 -0.658590 -1.601610
C -1.642070 -0.250000 -2.375060
C -1.022950 -2.514470 -1.767630
C -0.212860 -3.207120 -0.829340
