52 

C 2.825570 1.298080 1.448930
C 2.108740 2.467930 1.815080
C 2.324640 0.133910 2.089440
C 2.430470 -1.070700 1.344940
C 2.833060 -1.159720 -0.013930
C 2.654940 -2.126490 -1.038670
C 1.893220 -3.247600 -0.615160
C 1.602620 -2.153440 1.743430
C 1.527540 -3.169990 0.754780
C 1.181320 0.506210 2.844870
C 0.135260 -0.452780 2.896330
C 0.472330 -1.779130 2.517260
C -2.442820 1.499620 1.106720
C -1.356310 1.311140 2.001470
C -1.163320 0.033130 2.589620
C -2.160740 -0.883530 2.163780
C 0.988680 1.851490 2.433110
C -0.216610 2.949290 0.621470
C -0.246460 2.176580 1.812470
C 2.237430 -1.546770 -2.265880
C 2.399320 -0.154420 -2.038570
C 0.898640 -1.968260 -2.481450
C -0.115810 -0.984220 -2.619820
C 0.173470 0.402100 -2.724840
C 1.478280 0.862340 -2.405200
C 1.778160 2.088020 -1.753860
C -2.180420 0.936800 -2.170510
C -0.845180 1.345870 -2.427960
C 0.116850 -3.327620 0.715520
C -0.208120 -3.081220 -0.644690
C 0.864010 -3.061260 -1.575590
C -1.346270 -2.272180 -0.902700
C -1.331180 -1.351880 -1.984040
C -2.424140 -0.445730 -1.956750
C 2.973440 0.043460 -0.754950
C 2.540550 2.398160 -0.596710
C 3.004360 1.218020 0.042470
C 0.908590 3.451420 -0.084380
C 2.133000 3.122050 0.554940
C -0.523430 2.525010 -1.705080
C 0.772680 3.039150 -1.436410
C -4.069950 0.696120 -0.510690
C -3.069260 1.443810 -1.185960
C -2.181020 -2.080550 0.229960
C -3.335610 -1.256150 0.168880
C -3.490520 -0.495880 -1.020400
C -1.730660 -2.102770 1.576480
C -0.431870 -2.622880 1.819450
C -3.558800 0.671810 0.813910
C -3.336820 -0.591280 1.423610
C -1.134050 2.788000 -0.450320
C -2.357820 2.126920 -0.164380
