52 

C 3.820130 -0.900640 1.147340
C 3.652810 0.492160 0.926940
C 2.683250 -1.206340 1.941420
C 0.039670 -1.288860 2.449040
C -1.375470 -1.173930 2.477430
C 2.045240 -0.046790 2.456130
C 0.117290 1.256170 2.669880
C 0.660140 -0.052250 2.769150
C -1.295060 1.393640 2.616430
C -1.920520 0.120680 2.685890
C 1.975900 2.387200 -0.264460
C 1.805750 2.063780 1.107760
C 2.577320 1.022270 1.687720
C 0.556910 2.251220 1.757140
C 0.498460 -2.299830 1.563590
C 1.884090 -2.175320 1.278920
C -2.030580 -2.004890 1.530430
C -1.565920 -2.838790 0.479150
C -0.151420 -2.963350 0.489390
C -3.105600 -1.152470 1.164180
C -3.377700 1.078460 0.935960
C -3.096640 0.066810 1.891990
C 0.191240 -2.936300 -0.888420
C 1.364690 -2.207290 -1.217200
C 2.236580 -2.205520 -0.096340
C 3.385720 -1.371640 -0.119900
C 3.488080 -0.393620 -1.144320
C -0.867270 -2.727400 -1.811660
C 1.363140 -1.150400 -2.165620
C 2.437980 -0.225870 -2.085410
C -1.941700 -2.841480 -0.890240
C 2.960910 1.794180 -1.097830
C 3.761340 0.815410 -0.451520
C -0.849560 -1.534740 -2.582200
C 0.191230 -0.579940 -2.729270
C 2.364440 1.184520 -2.233150
C -2.098660 -0.901820 -2.346380
C -2.212330 0.513650 -2.349170
C -1.170060 1.472730 -2.450740
C 0.061760 0.833980 -2.752530
C 1.063780 1.746380 -2.328370
C -3.514870 0.430160 -0.319950
C -3.250280 -0.962430 -0.235610
C -2.657640 -1.686880 -1.303480
C -3.027950 1.198790 -1.410150
C -1.537020 2.384840 1.628790
C -2.512960 2.335990 -0.733420
C -2.582270 2.226740 0.680690
C 0.941930 2.614130 -1.210970
C -1.296380 2.474740 -1.452510
C -0.282930 2.867610 -0.538710
C -0.408950 2.802540 0.874190
