52 

C 2.147860 -1.228970 1.972630
C 2.758970 -0.008480 2.364430
C -1.012090 -3.048660 1.390170
C 0.343210 -2.627570 1.439110
C 0.796290 -1.558890 2.257150
C 3.819650 0.239090 1.453340
C 2.191620 1.851620 1.282460
C 3.333470 1.299590 0.643760
C -1.758010 -1.957180 1.908620
C -1.349010 -0.676780 2.366730
C 0.017590 -0.448390 2.677820
C 0.477930 0.894960 2.682070
C 1.862590 1.090600 2.435330
C -0.247720 2.016020 2.199230
C 3.630210 -0.603390 0.326040
C 3.733170 -0.221510 -1.037790
C 3.394100 1.130130 -0.764810
C 0.119500 2.797260 1.071710
C 1.280560 2.413920 0.349570
C 2.972990 -0.661820 -2.153450
C 2.270560 0.441160 -2.707060
C -0.910700 2.783550 -1.140670
C 0.090130 2.028240 -1.807330
C 1.281780 2.129380 -1.041670
C 2.331450 1.404780 -1.665810
C -0.922500 3.227330 0.208160
C 2.019290 -1.628280 -1.737630
C 1.907760 -2.120140 -0.410150
C 2.623590 -1.543280 0.672100
C 0.766710 -2.798210 0.094480
C 0.883350 -1.378280 -2.552250
C -0.262060 -2.010390 -1.999960
C -0.259870 -2.886790 -0.882640
C -2.465210 -2.739730 -0.310550
C -1.238260 -3.370550 0.025730
C -2.296510 1.126560 -1.997280
C -1.320620 0.209480 -2.469670
C -1.398480 -1.173510 -2.156970
C -2.397440 -1.757770 -1.334090
C -0.079590 0.881360 -2.627300
C 0.956460 -0.024950 -2.976030
C -2.257450 2.411630 -1.394390
C -3.322600 0.576570 -1.184220
C -3.342810 -0.807180 -0.866040
C -2.852240 2.599310 -0.118680
C -3.399030 1.298010 0.036480
C -2.037700 2.871820 1.012120
C -2.788020 -2.195210 0.960550
C -3.356980 -0.962170 0.545420
C -3.061090 0.339910 1.028590
C -2.040520 0.508490 2.001430
C -1.634260 1.867320 1.931180
