52 

C 3.248590 0.150390 0.692880
C 2.649710 -0.599570 1.739540
C 3.249090 -0.153450 -0.694280
C 2.285690 -1.838680 1.149060
C 1.028680 -2.353680 1.562870
C 0.161880 -1.616470 2.412460
C -1.169300 -2.065420 2.205100
C -2.715640 -2.799010 0.508750
C -1.506900 -3.028560 1.217750
C 3.054200 1.431870 1.272940
C 2.205930 1.447760 2.411650
C 1.175300 2.343790 2.022480
C 0.444380 -0.275350 2.784150
C 1.804830 0.104470 2.637870
C -2.173990 -1.067350 2.100470
C -1.844050 0.311970 2.172390
C -0.547660 0.720670 2.583290
C -0.203440 2.017480 2.118250
C -0.977070 2.753970 1.182530
C 2.616250 2.224040 0.178790
C 2.286700 1.838690 -1.147640
C 2.650950 0.600000 -1.738800
C 1.539910 2.928070 0.780650
C -0.647970 3.251650 -0.106060
C 0.734470 3.076660 -0.379390
C 1.029730 2.351600 -1.564120
C -1.169880 2.066480 -2.203600
C 0.160400 1.615330 -2.411880
C 0.442130 0.273880 -2.782910
C 1.803920 -0.101370 -2.637180
C 2.208410 -1.444310 -2.415040
C -1.505970 3.029370 -1.215510
C 3.053610 -1.434920 -1.273990
C 2.616580 -2.223730 -0.177090
C 1.540820 -2.925380 -0.782790
C -0.648560 -3.251610 0.108710
C 0.734960 -3.076790 0.376570
C -2.173800 1.067430 -2.101010
C -1.845090 -0.312210 -2.172270
C -0.549150 -0.722980 -2.582530
C -0.203710 -2.019320 -2.117060
C 1.176870 -2.338190 -2.023430
C -0.976610 -2.756050 -1.180960
C -3.026650 1.527670 -1.063100
C -2.605490 -1.114640 -1.281020
C -2.298320 -2.411990 -0.792220
C -2.716520 2.798280 -0.510120
C -2.603880 1.115030 1.281200
C -2.298560 2.412260 0.790930
C -3.235310 -0.705500 -0.075870
C -3.025790 -1.528570 1.062140
C -3.234680 0.706310 0.076440
