52 

C -3.307160 1.310840 -0.839710
C -3.750060 0.489770 0.230880
C -3.128690 0.968180 1.414720
C -3.683500 -0.924790 0.125850
C -2.502480 -0.162270 2.003320
C -2.929610 -1.300270 1.269150
C -3.200810 -1.609680 -1.020620
C -2.541380 -0.766610 -1.953830
C -2.588250 0.650230 -1.870840
C -2.350530 -2.623020 -0.504270
C -0.067310 -2.977240 -0.854100
C -1.295730 -2.593910 -1.454580
C -0.788350 -2.302880 1.482580
C -2.063320 -2.348010 0.858940
C 0.072760 -2.952210 0.558800
C -0.465460 -1.279040 2.412100
C -0.758440 1.260750 2.661790
C -1.210870 -0.083260 2.588110
C 0.896870 -1.077350 2.758290
C 0.733890 1.714310 -2.507050
C -1.491270 1.510780 -2.140250
C -0.366360 0.833510 -2.681020
C -0.288410 -0.584390 -2.684990
C 0.942120 -1.243130 -2.423470
C -1.344190 -1.450040 -2.294630
C 1.008900 -2.348360 -1.534380
C -1.471550 2.510490 -1.131950
C -2.576230 2.375880 -0.249880
C 0.784120 2.599890 -1.398130
C -0.264990 2.888780 -0.485760
C -0.201850 2.834730 0.931830
C -1.180410 2.330650 1.828910
C -2.413790 2.165090 1.144970
C 2.736350 1.702170 -1.685500
C 1.979750 2.350530 -0.673740
C 1.986480 1.079550 -2.718190
C 2.021140 -0.333190 -2.579020
C 3.097980 -0.609370 -1.695520
C 3.492560 0.634010 -1.134510
C 3.571380 0.411790 0.265780
C 2.836830 1.119560 1.253680
C 1.989240 2.130960 0.729180
C 0.923750 2.342200 1.643800
C 1.935930 -2.465070 -0.465060
C 3.451760 -0.958980 0.616610
C 2.976480 -1.508730 -0.603340
C 2.924240 -1.079690 1.929470
C 1.767030 -1.900050 1.995110
C 1.433560 -2.667210 0.847650
C 0.649190 1.442230 2.707340
C 2.650510 0.246220 2.357760
C 1.368180 0.245700 2.967690
