52 

C 3.169670 -1.672770 0.029010
C 3.022720 -0.776670 -1.062770
C 2.217830 -0.906620 -2.225430
C 1.208140 -1.896460 -2.093930
C 1.044860 -2.535450 -0.836290
C 2.010370 -2.474130 0.203200
C 1.763700 0.228010 -2.948510
C -1.096720 -1.722690 -2.491540
C 0.202400 -1.393790 -2.961260
C 0.477330 -0.092100 -3.457690
C -1.293750 -2.498890 -1.318850
C -0.534050 -2.716620 1.023730
C -0.274360 -2.779580 -0.370930
C -2.597690 -2.267550 -0.806360
C 1.734750 1.457200 -2.238040
C 2.351490 1.616730 -0.968900
C 3.089490 0.511420 -0.468770
C 1.882560 2.538840 0.003890
C 0.462110 2.063460 -2.409150
C 0.027210 2.942910 -1.382540
C 0.767600 3.380050 -0.252420
C -1.975940 -0.612370 -2.388550
C -1.532410 0.736210 -2.355100
C -0.289660 1.006300 -2.986820
C 1.895480 2.132470 1.364460
C 2.561690 0.950800 1.784370
C 3.375700 0.208180 0.888640
C 0.608090 2.415590 1.892600
C 0.005370 1.310170 2.549340
C -1.408090 1.319790 2.413100
C 0.068320 3.363410 0.983360
C 3.636530 -1.137710 1.258710
C 2.600060 -1.354600 2.204810
C 0.417970 -2.320090 1.999900
C 1.779790 -2.342320 1.598160
C 0.612610 0.050300 2.795270
C 2.000070 -0.112050 2.540280
C -0.065690 -1.194870 2.718520
C -3.257360 0.165820 1.637600
C -2.099770 0.080340 2.455620
C -1.467190 -1.190520 2.489970
C -1.250840 3.029070 0.577810
C -3.032310 1.381170 0.938520
C -1.989710 2.193910 1.457030
C -2.991420 -1.111200 -1.530420
C -3.509670 -0.241780 -0.534440
C -2.953480 1.061560 -0.442810
C -1.977440 1.602010 -1.321270
C -1.248090 2.705530 -0.804850
C -1.754520 -2.202480 1.536140
C -3.604790 -0.873020 0.733980
C -2.788940 -2.024950 0.579650
