52 

C 3.939510 -0.819530 1.228040
C 3.036910 -1.915000 1.269330
C 0.722640 -1.957420 1.664360
C 1.977330 -1.447040 2.090820
C 0.608300 -2.530070 0.369900
C -2.891760 -2.285750 0.094630
C -1.594840 -2.446810 0.650100
C 3.271090 0.310390 1.769290
C 3.295870 1.402550 0.862060
C 2.064410 -0.067380 2.415570
C 2.207640 2.264040 0.561910
C 1.113390 2.033580 1.437180
C 1.056840 0.929490 2.328430
C -1.461690 -1.726610 1.866720
C -0.245240 -1.144520 2.311620
C -0.148750 0.238200 2.620250
C -1.152700 1.232580 2.479670
C 3.737050 0.967200 -0.415530
C 3.088910 1.555090 -1.533900
C 2.261580 2.477950 -0.840870
C -1.056900 2.339540 1.595380
C 0.024030 2.575950 0.705320
C 3.381030 -1.365210 -1.052960
C 2.527400 -0.793670 -2.033340
C 3.897170 -0.415070 -0.132500
C 2.403260 0.591580 -2.320030
C 1.144570 1.227400 -2.487100
C 1.464630 -1.720480 -1.865930
C 0.247940 -1.145420 -2.319320
C 0.137470 0.236230 -2.628170
C -2.205600 2.265190 -0.552700
C -1.113440 2.031790 -1.429790
C -1.064450 0.927190 -2.320830
C -2.070070 -0.071130 -2.413220
C -0.013850 2.575180 -0.714210
C 1.069840 2.333180 -1.599330
C -2.257910 2.477350 0.850390
C 1.594000 -2.439530 -0.648290
C 2.892180 -2.289970 -0.092620
C -0.606110 -2.525570 -0.366110
C -1.975990 -1.450270 -2.088270
C -0.718040 -1.950540 -1.659650
C -3.037810 -1.916370 -1.268700
C -3.941770 -0.821940 -1.230040
C -3.292250 1.406540 -0.866260
C -3.276710 0.310850 -1.769380
C -3.093310 1.551820 1.530040
C -3.739630 0.968480 0.408250
C -3.379840 -1.360650 1.055040
C -2.522170 -0.797710 2.036850
C -2.408400 0.589480 2.318220
C -3.895730 -0.415150 0.129670
