52 

C -0.015060 -1.498490 3.149280
C 1.251150 -1.545250 2.508110
C 3.022590 -1.504780 0.253490
C 1.368160 0.942110 2.282390
C 1.946920 -0.350830 2.182730
C 2.951920 -0.433490 1.182940
C 1.986740 1.970430 1.523130
C 3.073860 1.948650 0.609820
C 3.540270 0.619120 0.433080
C -0.010980 0.980510 2.618550
C -0.697520 2.008920 1.920240
C -0.618640 -0.214660 3.086270
C -2.075380 1.825220 1.630010
C 3.152470 -1.020940 -1.075240
C 2.076070 -1.518470 -1.856500
C 3.499440 0.351270 -0.960850
C 1.259610 -0.602470 -2.571300
C 0.013300 -1.170390 -2.946530
C 1.598860 -2.585080 -1.049600
C -0.361240 -2.450550 -2.459330
C 0.267090 -3.002460 -1.311700
C -2.143920 -1.024600 -2.353930
C -1.659420 -2.283020 -1.908770
C -2.998850 -0.370180 -1.428010
C -3.184270 1.036980 -1.383450
C 2.592660 1.241380 -1.594840
C 1.443970 0.776890 -2.288570
C 0.325030 1.641560 -2.158720
C -0.944880 1.085110 -2.465770
C -1.076590 -0.261440 -2.896950
C -2.009400 1.728560 -1.780780
C 1.253230 -2.562560 1.517390
C -0.074280 -3.002790 1.271620
C 1.996450 -2.484730 0.309930
C -0.449040 -3.130070 -0.092130
C -1.669430 -2.537650 -0.511800
C -2.289890 -1.791970 0.525240
C -3.063900 -0.757050 -0.063250
C -1.880580 -1.708100 1.882400
C -0.759150 -2.427020 2.374290
C -3.392150 0.370170 0.735530
C -2.640870 0.556720 1.926000
C -1.921610 -0.474960 2.585320
C -3.661610 1.471950 -0.118790
C -2.662470 2.316150 0.433870
C -0.559920 3.080390 -0.342970
C -1.860280 2.631150 -0.694710
C 2.784000 2.345380 -0.722480
C 1.614300 3.122580 -0.512270
C 0.470100 2.726540 -1.254160
C -0.108190 2.907690 0.992140
C 1.301340 3.028540 0.869620
