52 

C 3.514760 -0.522760 1.297370
C 2.458860 -1.069610 2.073630
C 3.604810 -0.863160 -0.078310
C 1.836420 -2.164690 1.417910
C 0.455440 -2.260650 1.734480
C 1.896390 0.097320 2.655370
C 0.477040 0.142250 2.660480
C -0.080960 -1.142410 2.426230
C -1.484540 -1.108350 2.213370
C -3.298840 0.473160 1.678910
C -2.054540 0.189310 2.301480
C -3.218090 -1.858250 0.630490
C -2.003880 -2.090650 1.329150
C -3.777520 -0.570580 0.843510
C 2.523770 1.279910 2.181710
C 3.695280 0.872440 1.490360
C 1.934740 2.192770 1.267250
C -1.427460 1.456580 2.170090
C -0.011540 1.417400 2.270830
C 0.527810 2.362440 1.358420
C 0.025780 2.874160 0.132600
C 3.474920 1.271760 0.145580
C 3.638120 0.306390 -0.882960
C 2.992930 0.149010 -2.138110
C 2.380710 2.148220 -0.080190
C 0.437010 2.634330 -1.205260
C 1.738160 2.082960 -1.344850
C 1.941260 1.083160 -2.332580
C 2.587400 -1.211810 -2.125160
C 2.803870 -1.760310 -0.833340
C 1.971860 -2.503170 0.045480
C 1.247520 -1.179400 -2.594320
C 0.448620 -2.096530 -1.861370
C 0.761330 -2.766090 -0.648770
C -1.354290 -2.821360 0.299310
C 0.036560 -2.939930 0.559920
C -0.454640 1.987100 -2.101100
C -0.305240 0.711140 -2.706210
C 0.999300 0.184870 -2.900260
C -1.176040 -0.385620 -2.471010
C -0.907140 -1.693350 -1.987250
C -1.671540 -2.394260 -1.017270
C -3.322100 -0.691660 -1.350860
C -2.995690 -1.945320 -0.769290
C -1.586670 2.408830 -1.354710
C -2.620070 1.452110 -1.537050
C -2.427910 0.148340 -2.065880
C -3.247040 1.665330 0.909190
C -1.986290 2.272370 1.150950
C -1.385990 2.824060 -0.011670
C -3.515700 1.323600 -0.442640
C -4.096950 0.028600 -0.403630
