52 

C -2.338510 -0.722260 -2.643360
C -2.332370 0.595000 -2.112920
C -1.035990 -1.286360 -2.685480
C 0.030650 -0.349240 -2.712150
C -0.132430 1.052140 -2.550300
C -1.324360 1.588250 -1.994940
C -1.374840 2.578970 -0.978870
C 2.243400 1.382210 -2.301310
C 0.934300 1.924240 -2.206750
C 1.220470 -0.934600 -2.204000
C 3.452190 -0.329290 -1.421060
C 2.317980 -0.033690 -2.222710
C 2.230810 -2.121740 -0.295050
C 1.202070 -2.000990 -1.266450
C 3.414830 -1.350400 -0.434970
C -3.103800 0.581980 -0.920780
C -2.224980 2.685290 0.153560
C -2.991740 1.490140 0.165110
C 0.905420 2.781000 -1.074670
C -0.242130 3.106400 -0.304130
C -2.975190 1.097820 1.529750
C -1.808390 -0.500020 2.583000
C -1.122320 -1.718490 2.335640
C -0.350630 2.896610 1.096110
C -1.721760 2.890240 1.465500
C -2.107230 1.856220 2.359170
C 0.107670 0.914420 2.614390
C -1.290020 0.797510 2.836400
C 0.504790 1.993790 1.781460
C -2.816740 -0.311530 1.601090
C -3.039050 -1.172190 0.493700
C -3.345070 -0.815400 -0.846250
C -2.339950 -2.374600 0.207510
C -1.345910 -2.549850 1.206330
C -3.137670 -1.674790 -1.957480
C -2.325070 -2.559570 -1.200330
C -1.045540 -2.390400 -1.792450
C -0.138280 -2.875810 0.534150
C -0.003580 -2.630310 -0.857980
C 0.750070 -2.568220 1.598430
C 2.888480 -1.401680 1.745610
C 2.060720 -2.354770 1.095350
C 1.967990 2.359630 -0.232140
C 1.736240 1.878830 1.083750
C 2.565370 0.801500 1.494060
C 2.149280 -0.310170 2.273480
C 0.801370 -0.320120 2.720100
C 0.278020 -1.629630 2.553760
C 3.775660 0.831010 -0.669090
C 2.927430 1.861870 -1.153080
C 3.627440 0.358850 0.661890
C 3.920900 -1.017780 0.849420
