52 

C -1.071400 -2.755560 -1.001300
C -1.685070 -1.982910 -2.022570
C -2.941580 -1.526660 -1.543520
C 0.347170 -2.709650 -1.046550
C 0.953050 -1.830150 -1.982460
C 2.286650 -1.638010 -1.534010
C -2.905440 -0.147730 -1.880710
C -3.181870 0.533110 -0.665570
C -2.627310 1.783220 -0.283220
C -1.791800 0.289380 -2.645700
C 0.124530 1.711870 -2.579550
C -1.262770 1.564890 -2.314410
C -1.723770 2.347000 -1.222510
C 0.310370 -0.828330 -2.756930
C -1.104370 -0.943900 -2.796980
C 0.803360 0.498640 -2.868940
C -3.181780 -0.182900 1.729880
C -2.450230 0.987490 2.063840
C -3.533570 -0.375280 0.367660
C -2.367590 2.020130 1.092600
C -1.337610 2.997320 1.066260
C -1.094930 3.237100 -0.312170
C -1.341660 -0.899090 2.683560
C -2.533370 -1.393670 2.090470
C -0.195270 -1.641890 2.295490
C -0.234390 2.531820 1.829600
C -0.166960 1.323500 2.572560
C -1.317530 0.517460 2.779750
C 0.997490 0.511000 2.551810
C 1.009170 -0.905140 2.447380
C 2.097750 -1.583410 1.837940
C -2.533780 -2.187250 0.912890
C -3.285420 -1.664790 -0.172690
C -1.380240 -2.823680 0.383050
C 0.722380 -2.896780 0.310160
C -0.288560 -2.616880 1.267290
C 2.009800 -2.478220 0.738830
C 3.903540 -1.338270 0.277530
C 2.870850 -2.103360 -0.326280
C 3.243900 0.472090 1.535810
C 3.324070 -0.945470 1.512990
C 0.713790 2.970240 0.867730
C 1.929980 2.252680 1.017610
C 2.087700 1.188240 1.944170
C 2.028340 1.921040 -1.495300
C 0.779170 2.575480 -1.661910
C 0.315260 3.202470 -0.475290
C 2.588570 1.902060 -0.190610
C 3.680510 -0.246050 -0.602090
C 2.820890 -0.336810 -1.728700
C 2.072580 0.737450 -2.278610
C 3.517370 0.906130 0.211710
