52 

C -3.208380 1.172220 -0.806560
C -3.285640 1.745400 0.490370
C -2.317960 2.784180 0.458560
C -3.074080 0.921620 1.627500
C -1.536090 2.428510 1.589350
C -2.049000 1.435380 2.465190
C -2.788150 -0.453330 1.417100
C -2.780930 -1.069540 0.137730
C -2.922010 -0.207540 -0.981890
C -2.230770 -2.357790 -0.095090
C -1.900550 -0.902500 2.430450
C -1.265290 -2.134350 2.121390
C -1.580140 -2.963400 1.012340
C 0.151450 -2.094980 2.209700
C 2.125610 -0.780980 2.214990
C 0.773760 -0.891630 2.635460
C 0.123960 0.362400 2.782720
C -1.292240 0.303520 2.868540
C 2.886780 0.405450 2.043340
C 0.652960 1.534690 2.180730
C 0.276010 2.841660 0.096660
C -0.130330 2.415540 1.388860
C 2.029520 1.517720 1.832540
C -1.757050 -2.721930 -1.383280
C -1.570420 -1.686810 -2.337330
C -2.232810 -0.438060 -2.201860
C -0.474450 -3.528060 0.323100
C -0.544150 -3.399360 -1.089360
C -0.349200 0.927260 -2.778830
C -1.747150 0.852600 -2.540700
C -2.437720 1.842740 -1.792930
C 0.156120 2.100220 -2.158060
C -0.459670 2.845450 -1.117930
C -1.858280 2.768020 -0.884900
C -0.194530 -1.583360 -2.673010
C 1.729100 -0.165530 -2.519510
C 0.364070 -0.295730 -2.888580
C 2.293740 -1.144850 -1.660100
C 0.354070 -2.563880 -1.804650
C 1.513400 -2.179850 -1.080130
C 3.473940 0.835510 -1.206610
C 2.347140 1.023620 -2.050050
C 1.506360 2.118960 -1.718810
C 0.528360 -2.859340 1.073850
C 1.617600 -2.337170 0.327300
C 3.374490 -0.557660 -0.950450
C 3.523170 -0.725830 0.451710
C 2.511720 -1.514030 1.061740
C 3.983580 0.426710 1.141690
C 1.587230 2.565230 -0.373170
C 3.616900 1.336070 0.114540
C 2.485960 2.046840 0.596360
