52 

C -1.964050 -2.274320 0.757920
C -2.645670 -1.217770 1.417990
C -3.458690 -0.292180 0.711780
C -0.735910 -2.704630 1.326260
C -0.220720 -1.743260 2.235650
C 1.197530 -1.812140 2.215830
C -3.944580 0.869720 1.367750
C -0.736660 -0.462080 2.565760
C -2.137880 -0.314410 2.388840
C -2.824340 0.919590 2.238990
C -3.868340 1.721860 0.234410
C -2.622280 2.377890 0.417220
C 1.415670 2.550530 0.661060
C 0.001390 2.474980 0.557430
C 1.864460 -0.585600 2.475340
C 1.328920 0.726920 2.391540
C -0.089500 0.792310 2.410070
C -0.640750 1.872790 1.671730
C -2.057880 1.960810 1.651720
C 2.006650 1.745350 1.670490
C -2.347810 1.437870 -1.788700
C -3.361040 1.015250 -0.888010
C -1.593230 0.630830 -2.680790
C -0.471900 2.465800 -0.781390
C -1.886550 2.343380 -0.796870
C -0.232880 1.005020 -2.841780
C 0.204420 2.016830 -1.946510
C -1.625050 -0.783710 -2.560200
C -2.323110 -1.254790 -1.416820
C -3.149080 -0.372110 -0.671790
C -1.883850 -2.370790 -0.656550
C -0.381650 -1.396240 -2.868770
C -0.043900 -2.536360 -2.092520
C -0.793020 -3.179490 -1.071910
C 2.295070 0.955280 -2.043870
C 1.675830 -0.279620 -2.372640
C 0.422990 -0.238780 -3.039850
C 3.508260 2.279610 -0.182360
C 2.180260 2.640850 -0.532130
C 1.601690 2.155270 -1.734570
C -0.257350 -3.448500 0.215370
C 1.096690 -3.104430 -0.038900
C 2.805150 -1.695190 0.845850
C 1.708510 -2.555030 1.118800
C 3.300360 1.189920 -1.068790
C 3.562010 0.076650 -0.227010
C 2.849640 -1.130190 -0.456170
C 1.970300 -1.391630 -1.540070
C 1.160850 -2.541190 -1.340850
C 3.706030 0.399620 1.148260
C 3.318670 1.765610 1.127710
C 3.116370 -0.706140 1.816080
