52 

C -3.450120 -0.263710 0.983210
C -1.330680 -1.209590 2.445090
C -1.759030 -1.962820 1.320000
C -2.902190 -1.517900 0.604670
C -1.037330 -2.732340 0.369480
C 0.054530 -1.229490 2.757050
C 2.097040 -1.798300 1.782570
C 0.731310 -2.160220 1.925020
C 0.325410 -2.848910 0.751390
C 3.411090 -0.205600 1.079450
C 2.407760 -0.440050 2.056610
C -4.051870 0.213150 -0.211320
C -3.967120 -0.574720 -1.389670
C -3.221890 -1.615750 -0.775430
C -1.158360 -2.640180 -1.042380
C -2.185010 -1.911660 -1.699440
C -3.290850 1.411860 -0.191390
C -2.677620 1.731820 1.048810
C -1.518620 2.552270 1.039100
C -2.642170 1.401200 -1.454540
C -1.357700 2.006680 -1.464250
C -1.053380 2.743240 -0.288920
C 1.073950 2.772370 -1.178090
C 0.306120 3.049470 -0.016110
C -1.970380 -0.731550 -2.459550
C -2.993450 0.182540 -2.093200
C 0.094970 -2.329670 -1.633340
C 0.282350 -1.137100 -2.381180
C -0.692580 -0.125230 -2.586480
C -0.500500 1.254360 -2.310260
C 0.787420 1.844680 -2.214330
C -1.719150 0.122590 2.746530
C -0.674990 1.072190 2.902910
C -2.745810 0.582540 1.880040
C -0.612750 2.230910 2.084380
C 0.514610 2.653880 1.331670
C 1.626780 1.813320 1.601900
C 2.506130 2.007340 0.503900
C 2.420440 2.484760 -0.830690
C 1.545870 0.637080 2.393340
C 0.378620 0.127570 3.021300
C 3.464720 0.979840 0.299540
C 3.653440 0.664770 -1.072150
C 3.565980 -0.751890 -1.028750
C 2.853780 1.566340 -1.823240
C 0.854290 -2.878250 -0.566140
C 2.194560 -2.422660 -0.678200
C 2.449120 -1.395190 -1.624760
C 1.574430 -0.548570 -2.355920
C 1.782920 0.854310 -2.425500
C 2.767280 -2.226920 0.606350
C 3.788630 -1.302840 0.260940
