52 

C 1.744550 2.919240 0.626650
C 1.968330 1.922140 1.612700
C 0.347390 2.979530 0.380040
C -0.512830 2.359220 1.324410
C -0.205840 1.349370 2.274430
C 1.177370 1.063510 2.421220
C 1.522140 -0.264660 2.786710
C -2.444880 0.562260 2.199560
C -1.094340 0.271000 2.527780
C -1.825590 2.347990 0.783110
C -2.890730 1.674430 1.437510
C -3.110490 1.479700 -0.736920
C -1.927060 2.257270 -0.630380
C 3.001030 1.359950 0.816520
C 2.712690 -0.800780 2.228500
C 3.178980 -0.010030 1.145120
C 1.176410 -2.454720 1.867890
C 2.533390 -2.090490 1.661980
C 0.646270 -3.054890 0.695170
C -0.688840 -1.085790 2.421940
C 0.673790 -1.397620 2.671850
C -0.745040 -2.821530 0.533130
C -1.324940 -1.924620 1.468940
C 3.241360 -0.761470 -0.058170
C 2.770770 -2.062360 0.262220
C 0.958510 -3.124030 -0.688370
C 2.092640 -2.313780 -0.959830
C 2.837080 -0.305140 -1.340660
C 2.727280 1.088040 -1.592620
C 3.021990 1.926740 -0.485300
C 2.001090 -1.286550 -1.935990
C 0.888020 -0.817290 -2.682560
C -0.084270 -1.850370 -2.620110
C 0.051820 -2.981010 -1.771830
C 2.357600 3.173510 -0.628710
C 0.631350 0.579150 -2.707180
C 1.622220 1.536490 -2.363450
C 1.501830 2.781970 -1.692100
C -1.402260 -1.348620 -2.453930
C -1.692570 0.037060 -2.343870
C -0.676940 1.028610 -2.386500
C -0.842580 2.157910 -1.541700
C 0.249630 2.910680 -1.034940
C -2.843150 0.369440 -1.580920
C -1.979710 -2.144230 -1.429240
C -2.828930 -1.580880 -0.440350
C -3.588150 -0.398910 -0.647630
C -1.023790 -3.017050 -0.845460
C -3.262650 -0.373320 1.512280
C -2.570460 -1.479500 0.952250
C -3.893750 1.501540 0.447320
C -4.175720 0.112880 0.539490
