52 

C -2.541920 -0.209540 2.228900
C -2.872120 0.946900 1.473790
C -3.655400 1.073650 0.296150
C -1.219040 -0.390680 2.712310
C -2.029040 2.035560 1.126600
C -0.721190 1.874150 1.655820
C -0.425720 0.766790 2.494280
C 2.468630 -1.188260 1.630040
C 1.213700 -0.968240 2.257170
C 0.941930 0.391200 2.564780
C 1.743450 1.508740 2.211050
C -3.544840 2.016880 -0.759560
C -2.361260 2.527110 -0.163540
C 1.418340 2.484210 1.231640
C 0.103250 2.520430 0.697110
C -3.104950 1.273360 -1.886560
C -3.368480 -0.082330 -1.556200
C -1.742400 1.500370 -2.215790
C -2.475360 -1.183630 -1.633380
C -1.218590 -0.963630 -2.256810
C -0.929340 0.391070 -2.569340
C 2.028320 2.037610 -1.115880
C 0.724150 1.870490 -1.652330
C 0.439540 0.760610 -2.491210
C 1.228740 -0.399120 -2.711840
C -0.112760 2.519510 -0.706410
C -1.430210 2.478280 -1.234630
C 2.365170 2.526170 0.174190
C -3.829090 -0.237030 -0.221910
C -3.485810 -1.407850 0.504550
C -2.701480 -2.020240 -0.508470
C 0.898300 -1.739740 -2.380120
C -0.363270 -1.991470 -1.778810
C -2.985190 -1.498350 1.830300
C -1.916140 -2.412610 1.636130
C 1.691560 -2.656910 -0.262300
C 0.500390 -2.604320 0.509010
C -0.490880 -2.611670 -0.507760
C -1.687260 -2.655520 0.255880
C 1.910370 -2.410210 -1.643490
C 0.351290 -1.991000 1.781030
C -0.911780 -1.736090 2.377750
C 2.703930 -2.023490 0.506000
C 3.491620 -1.401550 -0.498560
C 3.828850 -0.226020 0.223150
C 2.988050 -1.503000 -1.822390
C 3.645700 1.080750 -0.301470
C 2.866880 0.951630 -1.481810
C 2.551020 -0.214320 -2.228260
C 3.550300 2.013490 0.764970
C 3.365060 -0.089300 1.558290
C 3.104960 1.267190 1.887960
