52 

C 2.803250 2.922670 -0.544350
C 2.325330 2.742070 0.780580
C 1.740410 2.764240 -1.472650
C -0.581970 1.440490 -2.162520
C -1.770150 0.716480 -2.446550
C 0.643210 2.955080 -0.591580
C -0.545950 2.338560 -1.063070
C -2.991360 0.980810 -1.771830
C 0.604600 1.212120 2.724120
C 0.170710 2.189390 1.789640
C 0.912970 2.887970 0.800970
C -1.161510 1.972520 1.348480
C -1.491090 2.132570 -0.023470
C -2.708080 1.600860 -0.526130
C 0.573780 0.701660 -2.529800
C 1.662410 1.559130 -2.219730
C 2.721740 0.714200 -1.795050
C 0.563180 -0.718350 -2.527810
C 1.670520 -1.552360 -2.220050
C 2.728430 -0.705810 -1.795080
C -1.762530 -0.703490 -2.455680
C -0.593890 -1.451130 -2.152680
C 1.748260 -2.760920 -1.478570
C -2.980280 -0.976590 -1.778230
C -0.541580 -2.344410 -1.050040
C 0.655110 -2.957870 -0.593870
C -4.379120 -0.012460 -0.391640
C -4.014590 -0.003730 -1.764030
C 3.125570 -1.559860 -0.732390
C 2.797480 -2.927460 -0.536340
C 3.132450 -0.712370 0.406980
C 3.131760 0.707610 0.416900
C 3.130380 1.552620 -0.724310
C 2.553710 -1.496200 1.439980
C 2.551220 1.504350 1.438970
C 1.898130 0.711680 2.419560
C 1.899190 -0.708320 2.423510
C 2.319770 -2.735290 0.787020
C 0.908490 -2.891870 0.801810
C 0.168970 -2.188250 1.788970
C 0.606390 -1.213110 2.723980
C -3.602360 -0.939510 0.352440
C -2.710000 -1.601300 -0.531980
C -1.495740 -2.130640 -0.020300
C -3.199950 -0.704420 1.693790
C -1.920510 -1.092480 2.172210
C -1.164100 -1.969970 1.351060
C -3.195790 0.715430 1.673030
C -3.622680 0.942530 0.337890
C 0.002080 -0.000970 3.150520
C -1.397600 0.001590 2.911120
C -1.918660 1.092450 2.166190
