52 

C 2.324530 -1.998950 -0.729120
C 2.829020 -0.674440 -0.641120
C 2.554710 0.253330 -1.680590
C 1.424840 -2.258240 -1.796740
C 0.799870 -1.194860 -2.500440
C 1.241930 2.361430 -1.796200
C -1.495760 2.089910 -1.679290
C -0.784570 1.165190 -2.489010
C 0.630050 1.288750 -2.497290
C 1.396760 0.093570 -2.486930
C 2.075380 -2.668330 0.498200
C 1.337700 -3.841420 0.188130
C -0.380340 -3.423870 -1.047070
C 1.035830 -3.458710 -1.145600
C -0.618620 -1.259200 -2.485150
C -1.052610 -2.343540 -1.677480
C -1.434780 -0.097220 -2.495990
C 1.838400 -1.925510 1.685020
C 2.172890 -0.550120 1.798910
C 2.903030 -0.114210 0.661630
C 3.292510 1.216280 0.354190
C 2.768800 2.169210 1.267490
C 0.572090 -2.362660 2.156010
C -0.359780 -1.348040 2.500560
C -0.002130 0.002810 2.753270
C 1.346280 0.368240 2.498780
C 1.767940 1.677720 2.146810
C -2.335470 0.690520 2.152590
C -0.989770 0.989510 2.493480
C 0.498560 -3.471850 1.272440
C -1.561940 -1.609420 1.791340
C -2.585440 -0.629920 1.693910
C 1.275830 3.132990 0.501260
C 2.659050 3.080890 0.184340
C -2.714220 2.237960 0.353230
C -1.366250 2.565060 0.657300
C -0.609660 2.162800 1.789650
C 0.750970 2.556170 1.687960
C -3.264430 1.305720 1.272260
C 2.477810 2.620960 -1.146830
C 3.153620 1.375850 -1.049970
C -0.826530 2.785170 -0.637570
C 0.572380 3.012240 -0.726340
C -3.997800 0.758550 0.186360
C -0.587120 -3.465480 0.357190
C -1.545520 -2.460910 0.655060
C -3.347330 -0.462210 0.507390
C -2.896020 -1.010670 -0.722220
C -1.997240 -2.107230 -0.643900
C -2.769160 2.044820 -1.052510
C -3.510070 0.836970 -1.144960
C -2.668230 -0.105610 -1.792450
