52 

C -3.406980 2.115460 0.123970
C -2.238820 2.512110 0.827210
C 1.800170 2.013080 1.800960
C 0.426090 2.266580 1.547510
C -2.890320 1.825470 -1.166550
C -2.921460 0.442250 -1.486320
C -2.042470 -0.236420 -2.371370
C -1.611880 2.383510 -1.432410
C 0.643460 2.152650 -2.061780
C -0.697050 1.765230 -2.325370
C -0.923870 0.476880 -2.877780
C 2.349550 2.591490 -0.542770
C 0.972440 2.782090 -0.832110
C 0.094320 2.821480 0.283150
C -1.260180 2.859150 -0.141470
C 2.752670 2.293860 0.785890
C -2.879350 -1.451340 0.079310
C -2.088520 -2.168930 -0.856740
C -3.323210 -0.145200 -0.257520
C -1.691710 -1.582920 -2.087840
C -0.401850 -1.814120 -2.634880
C -1.295060 -3.001700 -0.024050
C 0.001180 -3.237490 -0.553830
C 0.312160 -2.762280 -1.855330
C 1.654250 1.211960 -2.393200
C 1.370080 -0.135750 -2.738770
C 0.049270 -0.539480 -3.068740
C -2.582100 -1.778540 1.428760
C -1.531550 -2.730650 1.349650
C -2.271010 -0.702530 2.301640
C -2.723250 0.587180 1.916100
C -3.490020 0.842900 0.748590
C -0.952550 -0.931290 2.776820
C -0.113480 0.212000 2.850430
C 1.264220 -0.131870 2.865130
C 0.929170 -2.989190 0.491940
C 0.759350 -2.360160 1.753680
C -0.564910 -2.185600 2.235650
C 1.633310 -1.367760 2.271140
C -0.480470 1.463700 2.289160
C -1.830300 1.691300 1.911590
C 2.210120 0.879940 2.552210
C 2.786990 -1.567290 0.120280
C 2.732600 -1.035600 1.435880
C 3.201930 0.269730 1.739580
C 2.005900 -2.647730 -0.368580
C 2.133820 -1.137770 -2.083720
C 1.690490 -2.441670 -1.737690
C 3.272540 0.624890 -0.688260
C 2.696480 1.621330 -1.519940
C 2.963400 -0.723610 -1.008220
C 3.506400 1.100670 0.629060
