52 

C -2.322960 2.049630 -1.189190
C -2.564100 0.866750 -1.936990
C -3.420350 0.041350 -1.161080
C -0.971930 2.475620 -1.287850
C -0.106390 1.801530 -2.189520
C 1.213520 2.132970 -1.783890
C -2.872780 -1.263150 -1.283190
C -2.759770 -1.776600 0.035950
C -1.729430 -2.665440 0.441990
C -1.821030 -1.315720 -2.235830
C 0.385360 -1.816860 -2.472460
C -0.826560 -2.266640 -1.884670
C -0.896630 -2.986310 -0.662540
C -0.358170 0.564010 -2.838870
C -1.661590 0.033370 -2.649330
C 0.567350 -0.503530 -2.980930
C -3.257600 -0.799100 0.937680
C 0.047480 -3.038070 1.551660
C -1.184710 -2.351430 1.715250
C 0.148490 -3.429680 0.190450
C -3.725000 0.319150 0.197770
C -3.488150 1.497620 0.953750
C -1.312620 -1.093630 2.361860
C -2.508950 -0.385880 2.071370
C -2.755850 1.012490 2.069470
C -2.828670 2.409690 0.087940
C -1.779730 2.702510 0.999220
C 1.964860 1.378100 2.078510
C 0.687730 1.939750 1.813780
C 1.095720 -2.188780 1.994830
C 0.981620 -0.900680 2.581620
C -0.251630 -0.202700 2.673420
C -0.356270 1.190180 2.417760
C -1.587560 1.819310 2.094440
C 2.063060 0.009010 2.442450
C 2.822820 2.313850 -0.092050
C 1.489540 2.614920 -0.476980
C 0.557880 2.654990 0.593920
C -0.735770 2.879200 0.052980
C 3.011690 1.812510 1.223020
C 3.884990 0.712770 1.012470
C 1.927050 -2.404110 0.863910
C 2.892330 -1.377500 0.688520
C 3.169320 -0.348560 1.627120
C 2.344390 -1.163030 -1.776820
C 1.430690 -2.236860 -1.607980
C 1.341690 -2.873360 -0.341740
C 3.093320 -0.845880 -0.612800
C 3.206140 1.491570 -1.184450
C 2.211270 1.192160 -2.152450
C 1.880590 -0.110810 -2.609980
C 3.665260 0.429330 -0.361510
