52 

C 2.743620 0.303500 -2.247020
C 3.720130 1.096040 -1.587630
C 0.323750 0.306440 -2.690990
C 2.933620 2.136740 -1.026530
C 2.916340 2.122550 0.393330
C 1.539790 1.013840 -2.497480
C -0.480890 2.625390 1.524710
C 1.775750 2.205570 1.235150
C 0.596490 2.678720 0.601110
C 1.634480 2.109600 -1.599250
C -2.006820 0.429250 -2.559560
C -0.786570 1.127740 -2.360430
C -0.717090 2.167470 -1.395710
C 0.527670 2.516070 -0.807920
C -1.769010 2.548460 -0.521200
C -1.723490 2.832600 0.869350
C -0.562570 1.658300 2.561320
C 0.444780 0.682380 2.783510
C 1.645290 1.198340 2.227610
C 2.626460 0.257140 1.817820
C 2.360130 -1.137160 1.856310
C 0.259320 -0.723880 2.850870
C 1.195470 -1.707330 2.435050
C 0.996370 -2.902130 1.693940
C -2.616250 2.045490 1.643860
C -1.888490 1.156740 2.478680
C -1.031250 -1.257420 2.593540
C -3.095910 0.939140 -1.804350
C -3.018580 1.929740 -0.789880
C 3.707110 0.272250 -0.431070
C 3.120400 -1.020180 -0.474180
C 3.434750 0.873440 0.826230
C 2.661140 -1.786270 0.629740
C 1.743200 -2.860250 0.486900
C -0.962010 -1.776250 -2.380020
C 0.280610 -1.101380 -2.510190
C -2.105920 -0.983580 -2.662140
C 2.464690 -0.990670 -1.733390
C 1.086170 -2.756040 -0.767660
C 1.290980 -1.788190 -1.786360
C -2.244690 -1.970370 0.771770
C -2.290960 -2.202670 -0.628370
C -2.943820 -1.384780 -1.588180
C -1.235740 -2.341540 1.699490
C -0.251990 -3.142340 1.061220
C -0.205530 -3.179970 -0.357530
C -1.140860 -2.687400 -1.305660
C -2.015850 -0.254740 2.389540
C -3.345960 0.126700 0.323270
C -3.338510 1.530840 0.534850
C -2.748330 -0.741630 1.274720
C -3.501410 -0.194330 -1.051200
