52 

C -0.283560 3.250870 -0.988140
C 0.641240 2.620520 -1.862200
C 0.444140 1.359280 -2.484350
C 1.524660 0.438640 -2.522970
C 2.523290 0.850530 -1.601210
C 1.442730 -0.967920 -2.700020
C -1.463070 2.472570 -0.848470
C -2.950000 0.715200 -1.197200
C -1.790980 1.373940 -1.686360
C -0.817740 0.708010 -2.477440
C -0.963440 -0.696630 -2.626640
C 0.156640 -1.568780 -2.662120
C -3.522420 0.779810 0.100730
C 2.248270 -1.905020 -2.000450
C 2.916430 -1.479690 -0.821840
C 3.040280 -0.074800 -0.656240
C 1.561850 -2.926350 -1.291830
C 1.856220 -3.066680 0.090240
C -1.945000 -2.183850 -0.928710
C -0.643160 -2.605560 -0.549340
C 0.237100 -2.574830 -1.663190
C -3.258530 -0.638990 -1.492830
C -2.103120 -1.280260 -2.012650
C 2.933900 -2.196750 0.403700
C 2.795720 -1.701500 1.727360
C 2.728620 -0.287840 1.843740
C 3.036000 0.443340 0.665870
C 2.773950 1.822680 0.453280
C 2.586230 2.098660 -0.926940
C 1.663410 3.171460 -1.044840
C 1.803590 2.392290 1.319540
C 1.477650 3.375470 0.348120
C 1.684640 0.239270 2.649170
C 1.194780 1.511780 2.252580
C 0.064450 3.513590 0.363270
C -0.985050 0.512080 2.547270
C -0.217000 1.662190 2.224880
C -0.592220 2.672160 1.299900
C -2.325290 0.589750 2.084380
C -2.694530 1.465030 1.028920
C -1.763580 2.418470 0.538340
C 0.925790 -0.938900 2.878350
C -0.465070 -0.807090 2.624130
C -3.206230 -0.462470 1.719400
C 1.576880 -2.083810 2.347590
C -2.417260 -1.593490 1.380620
C -1.061310 -1.767560 1.764780
C -2.901040 -1.884400 0.077650
C -0.303590 -2.517390 0.826670
C 1.044210 -2.746710 1.210380
C -4.024650 -1.176220 -0.424720
C -4.184880 -0.324110 0.699840
