52 

C -1.452630 2.282060 1.343830
C -2.395520 0.247060 2.207090
C -1.345720 1.201910 2.259550
C -0.105360 0.693590 2.728230
C 0.927740 1.639740 2.495620
C 2.263380 1.161360 2.434830
C 2.851670 1.847910 1.339830
C 3.556580 0.892410 0.560980
C 3.334260 -0.376970 1.157390
C 2.265700 -2.369850 0.176150
C 3.163140 -1.274450 0.070300
C -2.273090 -1.149600 2.432550
C -0.938550 -1.630540 2.497470
C 0.117580 -0.708840 2.724500
C 1.360450 -1.206590 2.251190
C 2.395400 -0.235050 2.213250
C 1.452200 -2.289560 1.337310
C 3.335760 0.705110 -0.829220
C 3.260040 -0.661630 -1.207010
C 2.319500 1.358910 -1.575050
C 1.658040 2.384020 -0.848280
C 1.900670 2.537960 0.542380
C 0.430090 2.725020 -1.474650
C 1.542730 -2.031890 -2.177290
C 2.297040 -0.830230 -2.236890
C 1.733030 0.447630 -2.492710
C 0.362210 0.604930 -2.828300
C -0.150290 1.874970 -2.452970
C 1.721870 -2.862520 -1.039560
C -0.468250 3.285770 -0.528600
C -0.341070 3.022130 0.860920
C 0.868890 2.660590 1.510290
C -2.295170 0.835110 -2.237780
C -1.534280 2.032540 -2.176920
C -1.723290 2.859910 -1.038430
C 0.158130 -1.876210 -2.451390
C -0.369330 -0.612170 -2.826160
C -1.738990 -0.446950 -2.489730
C -3.161830 1.275090 0.067050
C -2.261530 2.367420 0.179840
C -3.339050 0.378770 1.154080
C -3.259120 0.661170 -1.209680
C -3.556440 -0.894820 0.564890
C -2.847520 -1.850780 1.339480
C -3.339660 -0.703470 -0.825360
C -0.434360 -2.721500 -1.476250
C -1.894810 -2.542810 0.545820
C -1.660700 -2.382660 -0.845580
C -2.324250 -1.358310 -1.571400
C -0.865960 -2.656100 1.517970
C 0.336110 -3.025350 0.858340
C 0.464540 -3.284240 -0.531940
