52 

C 3.109400 -1.049890 0.984900
C 3.642750 0.139210 0.420920
C 2.569060 -2.047750 0.131180
C 1.344430 -1.139120 2.560530
C 2.638350 -0.637490 2.259450
C 1.389790 -2.687630 0.596350
C 0.750290 -2.130230 1.735140
C 2.450290 -1.877080 -1.273530
C 2.687730 -0.568250 -1.770620
C 3.386360 0.363150 -0.957700
C 1.376440 -2.643120 -1.799330
C -1.280670 -1.206170 2.564770
C -0.668890 -2.139960 1.687110
C 0.846950 -3.207180 -0.608570
C 1.849910 1.554760 -2.126380
C 2.829350 1.661180 -1.103690
C 0.750360 2.443140 -1.991090
C 0.439640 -1.855110 -2.519010
C 0.525060 -0.468520 -2.813340
C 1.745420 0.192220 -2.512390
C 0.564990 3.030150 -0.711430
C 1.213680 2.623440 0.484530
C 2.508330 2.111850 0.204100
C 3.190890 1.281990 1.132460
C 2.627460 0.780440 2.335550
C -0.840300 3.209590 -0.614470
C 0.658070 2.136590 1.697280
C 1.290800 1.203600 2.560810
C -1.377350 2.642650 -1.800470
C -0.433130 1.860360 -2.516670
C -0.536270 0.474910 -2.810460
C -1.750630 -0.196940 -2.509770
C -0.708290 -0.018500 3.092290
C 0.711230 0.018300 3.085770
C -1.343650 1.136050 2.563340
C -1.388640 2.690640 0.588220
C -0.761520 2.129120 1.731830
C -2.637970 0.636540 2.260600
C -2.568320 2.046630 0.129930
C -3.642520 -0.137700 0.422020
C -3.108040 1.050730 0.986270
C -3.387130 -0.365820 -0.956090
C -2.690610 0.567260 -1.768900
C -2.451690 1.877020 -1.275080
C -0.742220 -2.442870 -1.995380
C -2.826930 -1.662330 -1.103250
C -1.847300 -1.560760 -2.126210
C -2.617050 -0.780990 2.341760
C -3.193370 -1.276170 1.142140
C -2.515980 -2.105490 0.209520
C -1.220430 -2.624450 0.471570
C -0.558080 -3.032010 -0.716530
