52 

C -3.258030 -0.711200 0.001600
C -2.968480 1.406720 -1.203510
C -3.258990 0.708850 -0.001410
C -1.281120 2.597880 -1.567560
C -2.412440 2.616350 -0.709470
C -0.224660 3.003540 -0.709710
C 0.984280 2.455410 -1.214250
C 2.290740 0.714280 -2.100040
C 1.072140 1.436540 -2.199530
C 3.311780 1.030440 -1.165170
C -2.970300 1.404670 1.202310
C -2.413440 2.614850 0.710550
C -0.232560 3.004940 0.710300
C -1.283990 2.592310 1.570960
C -2.337990 0.710790 2.267750
C -2.336190 -0.709260 2.269730
C -2.967760 -1.405850 1.205620
C -1.181150 1.506420 2.480230
C -2.413360 -2.615200 0.709090
C -2.413530 -2.613170 -0.710950
C -1.284630 -2.593590 1.570480
C -1.283450 -2.593760 -1.570610
C -0.232020 -3.004740 -0.709140
C -0.231290 -3.003580 0.710870
C -1.181640 -1.508590 2.480780
C -0.028430 -0.710880 2.704990
C -0.027790 0.709160 2.705260
C -2.968780 -1.402930 -1.204350
C -2.336770 -0.708940 -2.269910
C -2.336990 0.711090 -2.268310
C -1.181540 -1.507620 -2.479690
C -0.036070 0.707070 -2.705740
C -1.183350 1.512190 -2.477620
C 3.302790 -1.031770 -1.170030
C 2.290130 -0.705710 -2.110620
C -0.026320 -0.712920 -2.704250
C 0.981530 -2.461270 -1.207550
C 1.078980 -1.442570 -2.192030
C 1.725610 -2.491550 0.001540
C 3.311310 -1.027980 1.161970
C 2.937280 -1.751080 -0.001510
C 0.980140 2.459460 1.208570
C 1.076340 1.440630 2.193060
C 2.289900 0.707960 2.109820
C 2.296340 -0.712020 2.103490
C 1.078770 -1.437330 2.192300
C 0.981050 -2.458320 1.210250
C 2.936220 1.748970 0.000640
C 1.722550 2.486150 -0.001610
C 3.304030 1.033130 1.170550
C 4.169200 -0.005500 -0.709040
C 4.171940 0.007520 0.710900
