52 

C -3.440680 -0.703680 -0.944300
C -2.653200 -0.035970 -1.919260
C -2.479150 1.362280 -1.742840
C -2.775230 -1.912250 -0.608150
C 1.040590 1.557880 -2.443730
C -1.192720 1.885630 -2.039060
C -0.254850 1.016510 -2.656790
C -1.647500 -0.942110 -2.348170
C 0.580870 -1.383830 -2.730480
C -0.425400 -0.384980 -2.809220
C 1.875530 -0.808700 -2.632690
C 2.078880 0.591960 -2.517610
C -0.511470 -3.017360 0.387040
C -0.583520 -2.798760 -1.014240
C -1.707760 -2.098300 -1.525970
C 0.498760 -2.527310 -1.892520
C -0.945600 2.747330 -0.937740
C -2.007280 2.729570 0.005140
C 2.575910 2.299600 -0.871490
C 1.265340 2.480080 -1.387550
C 0.347650 2.806400 -0.354180
C 2.818960 2.244830 0.526510
C 1.810340 2.237300 1.526050
C 0.514720 2.541830 1.030960
C 2.986980 1.133420 -1.569660
C -3.067970 2.046690 -0.646800
C -3.632130 1.325120 0.438320
C -2.811550 1.348970 1.597000
C 1.047360 0.351440 2.950380
C -0.271660 0.781520 2.647460
C -0.471740 1.947150 1.861470
C -1.747750 2.246330 1.314950
C 2.051020 1.264960 2.532570
C -3.814330 -0.073300 0.272020
C -3.205330 -0.811650 1.321010
C -1.388560 -2.484860 1.368670
C -2.585440 -1.977090 0.797630
C -1.177410 -0.311590 2.612860
C -2.452900 0.081900 2.128380
C -0.830630 -1.670340 2.389320
C 2.545020 -0.939860 1.892710
C 1.399450 -1.006330 2.729190
C 0.534480 -2.054840 2.318220
C 2.634350 -1.686520 0.688150
C 3.029380 0.391570 1.988110
C 3.041040 -1.089840 -0.534550
C 3.346490 0.295890 -0.480750
C 3.426450 0.982660 0.759550
C 2.504160 -1.683480 -1.707480
C 0.671430 -2.860300 1.156790
C 1.750820 -2.706880 0.246950
C 1.705810 -2.728700 -1.172170
