52 

C -1.448300 2.166680 -1.700310
C -2.617060 1.363650 -1.775530
C 0.701470 2.569250 -1.780050
C -0.274860 1.718330 -2.362550
C 1.082660 -0.274810 -2.619680
C -0.186160 0.351750 -2.738260
C -1.273890 -0.530910 -2.505290
C -2.545530 -0.001370 -2.160350
C 1.225360 -1.668840 -2.389850
C 2.363320 2.472100 -0.355740
C 1.920080 1.872850 -1.564430
C 2.063950 0.519490 -1.969570
C -3.123290 1.326770 -0.449320
C -3.829940 0.161990 -0.048850
C -3.501160 -0.522810 -1.248590
C -3.273780 -1.631050 -0.390380
C -1.989640 -2.124930 -0.741890
C 0.141280 -2.347290 -1.772640
C -1.159000 -1.780710 -1.840990
C -3.588780 -0.298630 1.272560
C -3.638380 -1.687470 0.980860
C -2.508680 0.112870 2.097520
C -1.820700 1.302760 1.740590
C -2.212620 1.866120 0.497390
C -1.406420 2.653210 -0.366880
C -0.283870 3.195550 0.312970
C -1.764940 -1.026570 2.503680
C -0.351860 -0.923020 2.598660
C 0.186550 0.388040 2.687230
C -0.508480 1.538620 2.229410
C 0.049330 2.678930 1.593040
C 2.283880 -0.709700 2.118230
C 1.584910 0.478940 2.457450
C -2.395240 -1.940870 1.618700
C 0.300140 -1.969030 1.893510
C 1.717980 -1.976340 1.815180
C 0.722340 3.440190 -0.658680
C 1.737660 3.547820 0.328210
C 2.075540 1.675610 1.871190
C 1.449640 2.912990 1.565320
C 3.216580 -0.861260 1.058250
C 3.185210 0.270030 0.200560
C 2.783120 1.557100 0.645750
C 3.505200 -2.000620 0.261410
C -1.580400 -2.457220 0.576650
C -0.176710 -2.614950 0.722240
C 2.366530 -2.681780 0.767250
C 1.913350 -3.033260 -0.531790
C 0.504260 -2.860630 -0.499380
C 2.942120 -0.200480 -1.116990
C 3.180130 -1.599290 -1.061350
C 2.257050 -2.417790 -1.764460
