52 

C 4.265470 -1.261730 -0.002760
C 4.131660 -0.568460 -1.234800
C 2.472570 -1.808540 1.301320
C 3.023360 -1.949920 0.000110
C -0.789160 -2.605610 -0.001710
C 0.601280 -2.317030 -0.003220
C 2.703220 1.344900 -1.496290
C 1.978590 2.277260 -0.707540
C 1.038700 -1.907840 -1.290800
C 2.456150 -1.822400 -1.295450
C 3.027890 -0.799710 -2.097730
C -1.418560 -2.245780 -1.222730
C -0.963560 -1.246750 -2.123550
C 0.436120 -1.034420 -2.234480
C 0.864800 0.284540 -2.539590
C 2.278330 0.360450 -2.427310
C 0.248580 1.515160 -2.189820
C 0.675070 2.475610 -1.234770
C 3.679390 0.673590 0.709160
C 2.706680 1.349150 1.492690
C 3.674570 0.669670 -0.710830
C 1.971690 2.280560 0.712470
C 0.669420 2.465050 1.247720
C -1.606580 0.021160 2.285060
C -2.926940 -0.251340 1.839060
C -1.157780 1.358720 2.123520
C 0.253550 1.496290 2.199110
C 0.865020 0.262190 2.544980
C 2.276040 0.375840 2.432720
C -2.976380 2.064310 0.709560
C -1.680930 2.328430 1.227730
C -3.517390 0.813390 1.108190
C -1.244930 2.891620 -0.000760
C 0.173970 2.947240 0.007380
C -1.160630 1.353490 -2.123160
C -1.678410 2.328760 -1.230290
C -1.598960 0.012710 -2.286260
C 3.030010 -0.783600 2.110780
C 4.123050 -0.570860 1.229650
C 1.055730 -1.900310 1.275960
C 0.426700 -1.049580 2.223060
C -2.718540 -2.529960 0.709820
C -1.423100 -2.244310 1.216500
C -3.442830 -1.418200 1.215600
C -0.976370 -1.240030 2.115530
C -4.150420 -1.247970 -0.003730
C -4.135650 0.171940 0.002430
C -3.508530 0.809850 -1.100390
C -2.973460 2.066060 -0.710440
C -2.710880 -2.534860 -0.710160
C -3.422310 -1.412900 -1.211640
C -2.925290 -0.245840 -1.849890
