52 

C 1.324730 2.813770 1.527570
C 1.973450 1.587500 1.830870
C -0.077490 2.791970 1.750700
C -0.571610 1.579080 2.299680
C 0.097130 0.397140 2.714870
C 1.502630 0.436140 2.515870
C 2.271720 -0.716230 2.204390
C -1.853400 -1.052860 2.429330
C -0.447970 -0.906060 2.569780
C -2.501400 0.110250 1.935630
C -1.835430 1.341570 1.697340
C -2.109020 2.019530 0.479970
C 2.674640 1.334720 0.622190
C 3.324010 -0.947650 1.279420
C 3.325740 0.107300 0.328890
C 3.699480 -2.032920 0.444190
C 0.211730 -1.915580 1.820000
C 1.631670 -1.919030 1.804290
C 2.358970 -2.428020 0.695950
C 3.402020 -0.451570 -0.974300
C 3.746140 -1.829190 -0.960350
C 2.506280 0.105660 -1.924890
C 1.836790 1.338470 -1.704630
C 2.110080 2.017320 -0.487680
C 1.456910 3.108130 0.144710
C 0.358670 3.600270 -0.609010
C 1.849560 -1.047100 -2.431170
C 0.443990 -0.904220 -2.574450
C -0.098780 0.400420 -2.715530
C 0.569250 1.581520 -2.296890
C 0.079780 2.794760 -1.744740
C -2.273470 -0.717660 -2.207370
C -1.503600 0.436200 -2.511370
C 2.523060 -2.026540 -1.654300
C -0.209480 -1.911770 -1.816600
C -1.629470 -1.918740 -1.808470
C -1.455350 3.112810 -0.147630
C -0.360160 3.597010 0.615600
C -1.970100 1.589250 -1.826310
C -1.323790 2.818570 -1.530580
C -3.322720 -0.951210 -1.279490
C -3.327030 0.101180 -0.326140
C -2.677100 1.328380 -0.622770
C -3.698980 -2.036490 -0.444630
C 1.751300 -2.547020 -0.581950
C 0.334800 -2.456080 -0.623290
C -2.358940 -2.429340 -0.702310
C -2.526570 -2.031160 1.650730
C -1.753240 -2.545900 0.576750
C -0.336880 -2.457990 0.627820
C -3.394090 -0.446860 0.982130
C -3.748410 -1.821730 0.958170
