52 

C 2.331840 2.209010 -0.658590
C 2.776460 1.076760 -1.391310
C 2.282200 2.192080 0.760500
C 3.214540 0.119470 -0.438310
C 2.744560 -1.194610 -0.700620
C 2.003710 0.827030 -2.556200
C 1.526480 -0.491600 -2.779750
C 1.970250 -1.475770 -1.857300
C 1.336650 2.686800 -1.551760
C 1.125450 1.928660 -2.733740
C 0.137390 2.960360 -0.842220
C -0.013780 2.874320 0.567150
C 1.047320 2.452650 1.411410
C -1.306310 2.679050 1.121880
C -0.841490 2.517850 -1.770910
C -2.077820 2.311290 -1.103580
C -2.416430 2.632130 0.237630
C 0.147120 -0.741300 -3.006680
C -0.775690 0.319190 -2.805950
C -0.265350 1.642080 -2.728780
C 0.889690 1.571620 2.513880
C 2.112950 0.876170 2.704980
C -1.467060 1.756150 2.189080
C -0.386510 0.967640 2.665710
C -1.642700 -1.036380 2.119920
C -0.460320 -0.450330 2.644420
C 0.732660 -1.214900 2.551000
C 1.977250 -0.535000 2.623250
C -1.616980 -2.305410 1.483200
C -2.750360 1.220170 1.902210
C -2.709340 -0.187730 1.721740
C -3.452420 1.892710 0.867210
C 2.970970 1.359720 1.682050
C 3.464340 0.244900 0.953920
C 2.966740 -0.879220 1.664670
C 1.541170 -2.691620 0.721430
C 2.588830 -1.740650 0.600930
C -0.460520 -3.120410 1.361470
C 0.692930 -2.438680 1.831800
C -3.268020 -0.403060 0.434120
C -2.823350 -1.489830 -0.364430
C -2.250040 -2.631910 0.254760
C -3.418810 0.888570 -0.136290
C -0.098260 -2.035520 -2.476370
C -1.316500 -2.367880 -1.826830
C -2.202720 -1.277080 -1.623790
C -1.963360 0.047370 -2.076530
C -2.655980 1.033380 -1.325230
C -0.351170 -3.668080 0.055900
C 0.867770 -3.139800 -0.445660
C 1.000580 -2.502300 -1.707550
C -1.458580 -3.268080 -0.737860
