52 

C -2.737650 -0.697810 -2.333240
C -3.044300 -1.479760 -1.188220
C -1.379600 -0.694790 -2.748220
C -2.170580 -2.322800 -0.451740
C -0.899210 -2.487630 -1.062500
C -0.532910 -1.676990 -2.169410
C 2.515360 0.290950 -2.052960
C 1.220880 -0.044530 -2.530860
C 0.854570 -1.391010 -2.267490
C 1.652430 -2.272360 -1.490880
C -3.523290 -0.769350 -0.055820
C -3.124090 -1.167020 1.247620
C -2.344610 -2.317990 0.957560
C -0.174600 -2.867160 1.364430
C -1.325660 -2.272300 1.945560
C 1.290440 -3.089610 -0.387470
C -0.086080 -3.046800 -0.041400
C -2.913300 1.378200 0.603000
C -2.439030 1.005090 1.888460
C -3.331670 0.569970 -0.487040
C -2.444830 -0.377400 2.212800
C 0.929130 1.935600 2.248380
C -1.330800 1.813710 2.255120
C -0.160110 1.143940 2.699450
C -0.104970 -0.269830 2.820910
C 1.055190 -0.983470 2.419300
C -1.280940 -1.051090 2.668830
C 1.024000 -2.287670 1.858410
C -2.210980 2.519410 0.133090
C -1.379800 2.812170 1.246590
C 0.910080 2.924920 1.229870
C -0.256100 3.184880 0.462460
C -1.696240 2.434620 -1.187640
C -1.987960 1.481420 -2.198990
C -3.061800 0.608520 -1.880630
C -0.368810 2.858960 -0.915060
C 0.572740 2.185250 -1.737310
C 1.801040 2.429420 -1.067820
C 1.961800 2.850960 0.278620
C 0.320500 1.053270 -2.556730
C -1.016600 0.674410 -2.848320
C 2.831380 1.508070 -1.393280
C 3.467850 1.311660 -0.139190
C 3.654620 -0.094600 -0.075860
C 2.817920 1.941960 0.954770
C 1.885700 -2.848630 0.879020
C 2.962070 -2.064520 0.386040
C 3.024160 -0.782870 0.994300
C 2.153030 -0.209760 1.958210
C 2.111210 1.209560 1.945020
C 3.357310 -0.619640 -1.361300
C 2.953130 -1.939570 -1.028430
