52 

C -3.301280 1.205670 0.852600
C -3.715530 0.609150 -0.367670
C -3.116210 1.029400 -1.584500
C -3.662900 -0.809300 -0.326910
C -2.445490 -0.015970 -2.272870
C -2.941760 -1.108210 -1.513120
C -3.239420 -1.416180 0.885040
C -2.612860 -0.794970 1.997700
C -2.648610 0.624380 1.971800
C -2.372290 -2.398150 0.337080
C -0.223340 -3.044350 0.732210
C -1.393840 -2.537900 1.356710
C 1.338260 -3.035130 -0.920630
C -0.060500 -3.003090 -0.677870
C -0.618840 1.366790 -2.662700
C -1.094500 0.029520 -2.707920
C 1.061960 -0.964420 -2.466560
C -0.346070 -1.146610 -2.437520
C -0.789660 -2.198520 -1.593040
C -2.092170 -2.138690 -1.030640
C 1.756070 -2.026260 -1.828440
C 0.741820 1.555800 2.566570
C -1.499900 1.390020 2.304600
C -0.362540 0.691180 2.788960
C -0.280550 -0.723450 2.695930
C 0.889730 -1.405060 2.268800
C -1.414100 -1.488000 2.312620
C 0.905780 -2.562030 1.445600
C -1.476370 2.357990 1.265870
C -2.497280 2.230490 0.287110
C 0.740650 2.588860 1.592250
C -0.288370 2.822750 0.642050
C -0.213280 2.856470 -0.775600
C -1.099910 2.357380 -1.766170
C -2.343570 2.126860 -1.120750
C 1.966160 2.731010 0.889140
C 3.013320 1.666180 -0.840690
C 2.005560 2.615720 -0.525660
C 0.972280 2.558090 -1.498000
C 2.004580 -0.537230 2.125730
C 1.964750 0.860620 2.372500
C 2.734010 1.775310 1.605700
C 3.403860 -0.465720 -1.092630
C 2.740890 0.606650 -1.746040
C 3.593660 -0.109170 0.268720
C 3.423950 1.286970 0.464690
C 1.790440 -3.000450 0.425010
C 2.893450 -2.121230 0.261380
C 2.909900 -1.002260 1.135480
C 0.777250 1.558550 -2.487610
C 1.551740 0.368350 -2.484660
C 2.971070 -1.817810 -1.123650
