52 

C -0.319300 3.500340 -0.252360
C 0.478240 2.142130 -2.242170
C 0.684140 2.958020 -1.098270
C 1.391550 1.120490 -2.614510
C 2.518490 0.935340 -1.770540
C 0.670040 0.017300 -3.142600
C 2.691110 1.696370 -0.584150
C 1.732660 2.665710 -0.186320
C 3.324540 -1.268650 0.887360
C 3.318200 0.914990 0.422160
C 3.626790 -0.347410 -0.150170
C 2.179100 -1.443230 -1.832100
C 2.995380 -0.356030 -1.422060
C 1.066710 -1.271650 -2.697880
C -1.288010 -1.917900 -2.340240
C 0.099240 -2.202680 -2.235680
C 1.244030 2.671000 1.146990
C 0.033400 3.412750 1.120370
C 2.629480 0.788140 1.657510
C 1.476200 1.548880 1.985740
C -1.034680 2.887150 1.894580
C 2.755310 -0.585550 1.994520
C 0.384730 0.928660 2.649470
C -0.838810 1.642430 2.549440
C -2.037880 2.727540 0.902330
C -1.574560 2.861510 -0.433280
C -2.631710 1.469940 1.189170
C -3.071810 0.659180 0.109590
C -2.714320 0.912800 -1.241100
C -1.778230 1.948360 -1.501540
C -0.820990 1.630900 -2.501220
C 1.569450 -1.206850 2.468030
C 0.407520 -0.478730 2.837140
C -2.007860 -0.539520 2.440270
C -2.011560 0.875380 2.319810
C -2.745610 -0.288520 -1.997590
C -1.659120 -0.641930 -2.840860
C -0.706100 0.367560 -3.139330
C -2.667390 -1.324220 1.457560
C -3.160730 -0.750470 0.255950
C -3.047990 -1.300430 -1.048370
C -0.808990 -1.210280 2.799740
C 1.894960 -2.365770 -0.790640
C 2.347580 -2.242280 0.549640
C 0.191970 -2.929170 1.429740
C 1.477710 -2.373900 1.664280
C -0.912390 -2.498680 2.211720
C -0.221390 -3.140010 0.087680
C 0.571650 -2.814040 -1.044250
C -2.073810 -2.317980 -1.227180
C -2.010920 -2.575300 1.315190
C -1.615990 -2.891690 -0.011580
