52 

C -0.973760 -3.367940 -0.186950
C -2.040740 -2.896290 0.622720
C -2.663540 -2.226430 -0.463490
C 1.295760 -2.502490 -1.217490
C 2.519280 -1.792050 -1.339190
C -2.066450 -2.134670 -1.748600
C -0.847530 -2.815300 -1.488930
C 0.226230 -2.071890 -2.046490
C 3.076740 -1.687260 -0.037380
C 3.859200 -0.507640 0.075360
C 3.559370 0.085480 -1.179540
C 3.378350 1.407740 -0.694450
C 2.531550 -0.512800 -1.955510
C 1.344310 0.066620 -2.476310
C 0.217700 -0.782080 -2.640480
C 3.615920 0.249090 1.252060
C 3.750580 1.537210 0.669780
C 2.485230 0.016540 2.079080
C 1.706350 -1.169000 2.012740
C 2.091310 -2.007810 0.933520
C 1.211500 -2.815220 0.165100
C -0.018600 -3.079490 0.823480
C 1.830810 1.271120 2.198440
C 0.423980 1.335310 2.380790
C -0.171830 0.112540 2.788790
C 0.365750 -1.165270 2.481040
C -0.329120 -2.289600 1.961960
C -2.220150 1.375450 2.349610
C -1.590250 0.179960 2.786040
C 2.507600 1.995090 1.181450
C -0.161920 2.298300 1.517150
C -1.578700 2.376280 1.572860
C -2.264870 -0.931580 2.215250
C -1.737950 -2.188250 1.815810
C -3.150240 1.793100 0.128580
C -3.143800 1.031810 1.327260
C -1.738040 2.967060 -0.953250
C -2.205770 2.823290 0.379790
C 1.718850 2.491760 0.110160
C -0.324930 2.834720 -0.998740
C 0.327990 2.736630 0.258450
C -2.072760 -0.812070 -2.265460
C -0.991290 -0.050920 -2.782700
C -1.099830 1.359970 -2.664090
C 0.005810 2.100320 -2.168230
C 1.263070 1.441330 -2.129850
C 2.138280 1.944370 -1.131170
C -3.038120 -0.374640 1.162480
C -3.067500 -0.900180 -0.156370
C -2.929040 1.280700 -1.177150
C -2.904060 -0.129940 -1.338080
C -2.120730 2.099000 -2.009870
