52 

C -2.274080 -0.752100 2.138610
C -2.199440 0.663710 2.057960
C -2.890030 1.226660 0.952190
C -1.074460 1.366720 2.564610
C -1.144590 -1.559890 2.435660
C 1.143610 -1.564250 2.430870
C 0.001810 -0.858550 2.894390
C 0.000530 0.556230 3.016280
C 2.279160 -2.518380 0.559760
C 1.136030 -2.542810 1.401860
C -0.709850 2.499990 1.790500
C -1.264730 2.903910 0.547320
C -2.519680 2.354740 0.173260
C 0.710160 2.495600 1.794790
C -0.709040 2.991070 -0.756550
C 0.711000 2.992030 -0.755060
C 1.260410 2.905450 0.551500
C 2.515110 2.360670 0.170220
C 2.274310 -0.757270 2.136330
C 2.204180 0.658540 2.052300
C 1.079880 1.359830 2.562760
C 2.889200 1.234190 0.949670
C -2.583290 2.094020 -1.221170
C -3.255950 0.856620 -1.402380
C -0.714330 -1.425930 -2.547030
C -2.651650 -0.250320 -2.055070
C -1.345500 -0.155110 -2.604080
C 0.715210 1.098390 -2.498580
C -0.704810 1.107650 -2.497070
C -1.280990 2.188940 -1.779260
C 1.274750 2.188910 -1.781540
C -3.588250 0.521060 -0.063210
C -3.595510 -0.897090 0.009090
C -3.124420 -1.327370 -1.259520
C -1.059190 -2.455460 -1.631800
C -2.243860 -2.365000 -0.854090
C -3.022210 -1.475410 1.172400
C -2.277970 -2.516690 0.557390
C -1.139950 -2.538230 1.406430
C -0.000960 -2.894550 -0.792850
C -0.004210 -2.883510 0.627110
C 1.057790 -2.457470 -1.632180
C 3.122480 -1.332760 -1.258760
C 2.240880 -2.368930 -0.851860
C 2.577340 2.096820 -1.223670
C 3.258550 0.863720 -1.402180
C 2.658830 -0.248560 -2.049960
C 1.352590 -0.166430 -2.600800
C 0.705690 -1.429340 -2.546190
C 3.025810 -1.475320 1.168830
C 3.596170 -0.893530 0.005810
C 3.587470 0.524770 -0.063030
