52 

C -1.107120 2.398590 -1.473170
C -2.347190 2.786520 -0.900200
C -0.098080 2.467580 -0.476320
C 1.116160 2.020230 -1.061220
C 3.487510 1.541140 -0.358320
C 2.170060 2.008980 -0.109530
C -3.457250 1.929210 0.893380
C -2.444730 2.850130 0.515050
C -0.252840 2.357300 0.930960
C -1.555930 2.333770 1.494790
C -3.007930 0.928060 1.794650
C -3.013920 -0.413830 1.330130
C -2.398980 -1.625200 1.743530
C -2.319620 -2.719480 0.842030
C -1.752420 1.240750 2.379770
C 1.958030 1.837910 1.284110
C 0.643100 1.672700 1.794160
C 0.367930 0.490030 2.530400
C -0.983510 0.094740 2.714300
C -1.260470 -1.284500 2.520810
C -3.234370 -0.232530 -0.060910
C -2.495140 -2.522780 -0.553300
C -2.856960 -1.225470 -1.003310
C -2.961980 1.680010 -1.543730
C -2.305160 0.705820 -2.341250
C -3.398710 1.157950 -0.297490
C -2.309640 -0.707840 -2.207030
C -1.297880 -1.691390 -2.366500
C -1.069120 1.392100 -2.474170
C -0.022850 0.451930 -2.668840
C -0.097260 -0.963260 -2.578330
C 0.882350 -1.714980 -1.877090
C 3.151030 -1.126610 -1.000610
C 2.134740 -1.055220 -1.989800
C -0.981140 -3.187790 0.916780
C -0.568140 -3.131120 -0.440680
C -1.463970 -2.796510 -1.490410
C 1.367050 -2.187510 0.491750
C 0.672100 -2.493420 -0.708210
C 2.649380 -1.638910 0.225080
C 2.315300 0.339740 -2.184560
C 1.123750 1.111480 -2.152370
C 3.507690 0.702820 -1.504280
C 4.300220 -0.300370 -0.886280
C 4.441630 -0.066990 0.507260
C -0.499360 -2.336700 1.946330
C 0.816870 -1.839800 1.753840
C 3.375480 -0.791370 1.103070
C 3.078870 1.071940 1.700550
C 2.571840 -0.190410 2.107780
C 1.237250 -0.616470 2.339620
C 4.193350 1.289030 0.847780
