52 

C -2.961960 -1.169250 1.193980
C -2.815190 -0.148570 2.170300
C -2.122160 -2.302770 1.031600
C -2.132520 -2.019060 -1.557920
C -1.905310 -2.677960 -0.320700
C -1.066730 -2.215110 1.977580
C -0.669470 -1.039330 2.667740
C -1.562410 0.056040 2.806840
C -1.270290 1.413460 2.509190
C 0.065760 1.802340 2.225790
C 0.234570 2.779100 1.208910
C 2.252730 1.104520 1.908380
C 3.248480 0.154880 1.557390
C 1.492050 -1.593620 1.884880
C 0.685710 -0.631920 2.549360
C 0.992190 0.751660 2.458870
C 2.765150 -1.172970 1.417170
C -0.288900 -3.082570 1.165820
C 1.064790 -2.667100 1.059320
C -0.629050 -3.288200 -0.197420
C -2.131770 2.020060 1.557150
C -0.624970 3.286570 0.198910
C -1.903080 2.679900 0.320700
C 1.067430 2.655310 -1.066870
C -0.283950 3.080540 -1.164070
C 2.423540 2.035510 0.849820
C 1.341970 2.787840 0.320060
C 3.304310 1.499590 -0.126630
C -3.440910 0.706180 0.061510
C -2.962400 1.168100 -1.193130
C -3.120800 1.011690 1.410810
C -2.124610 2.303030 -1.030350
C -2.813000 0.149420 -2.171090
C -1.068860 2.219990 -1.976380
C 2.769450 1.185010 -1.403920
C 1.495330 1.580520 -1.890420
C 0.681570 0.623990 -2.553250
C -0.670180 1.044250 -2.665730
C -1.560040 -0.053200 -2.807870
C -3.121260 -1.010350 -1.411930
C -3.439610 -0.708500 -0.061400
C 3.248210 -0.142260 -1.563800
C 2.251390 -1.093610 -1.906970
C 0.986940 -0.759700 -2.460260
C 4.112590 0.506190 0.486740
C 4.106440 -0.518080 -0.496750
C 1.351380 -2.788640 -0.326150
C 2.427830 -2.024300 -0.849080
C 3.297740 -1.495690 0.140990
C -1.273030 -1.411940 -2.511410
C 0.059490 -1.808310 -2.222090
C 0.235390 -2.782670 -1.204210
