52 

C -3.826430 0.696990 0.723990
C -3.297630 -0.559830 1.120520
C -0.379130 -3.415170 0.800220
C -1.400180 -2.519930 1.215570
C -2.930710 1.538920 1.434850
C -2.394180 2.298620 0.361750
C -1.153260 2.926130 0.649680
C -2.045530 0.877800 2.326980
C -0.697360 1.287370 2.503820
C -0.411890 2.470220 1.771760
C 1.937190 1.958850 1.817370
C 0.900180 2.806230 1.345070
C 1.010770 -2.010690 2.242570
C 0.008320 -1.075260 2.612280
C 0.298620 0.307270 2.756720
C 1.621640 0.763150 2.515410
C -1.280670 -1.479470 2.174590
C -2.312580 -0.504540 2.141860
C 0.875660 -3.154300 1.411710
C -0.391310 3.215720 -0.513100
C 0.930530 3.269150 0.002970
C -0.465290 2.522700 -1.750330
C -1.563440 1.655380 -1.991980
C -2.521350 1.769700 -0.949950
C -1.340680 0.485310 -2.765150
C 2.746830 2.019390 -0.556580
C 1.619580 2.693050 -1.096930
C 0.842540 2.138090 -2.147970
C 1.029980 0.870380 -2.759720
C -0.047160 0.016800 -3.117000
C 2.956860 1.839800 0.836280
C -2.090470 -0.639960 -2.331490
C -2.996750 -0.496190 -1.247750
C -3.417690 0.714080 -0.635820
C -1.250390 -1.784790 -2.324080
C -3.009760 -1.284130 -0.066480
C -2.090550 -2.365290 -0.015650
C -1.362950 -2.647690 -1.201930
C 3.071590 0.872280 -1.328020
C 2.203100 0.245270 -2.260220
C 1.076460 -1.958480 -2.072510
C 0.016840 -1.368400 -2.811090
C 0.948720 -2.945100 -1.059250
C -0.317890 -3.411790 -0.618470
C 2.196220 -1.114110 -1.849750
C 3.374830 0.500010 1.052360
C 3.474760 0.008000 -0.275940
C 2.511550 -2.037000 0.503400
C 2.267970 -1.518360 1.802690
C 2.593280 -0.156570 2.039530
C 2.878840 -1.236700 -0.610620
C 1.602350 -3.082900 0.193820
