52 

C 1.533610 -2.628740 -0.253840
C 2.789610 -2.280170 -0.817360
C 0.451810 -2.326110 -1.122630
C -0.748090 -2.564080 -0.401330
C -3.113510 -1.957610 -0.557600
C -1.856760 -2.154690 -1.188640
C 3.765760 -0.418890 -1.622980
C 2.914560 -1.493590 -1.993010
C 0.536750 -1.389030 -2.186230
C 1.788510 -0.807710 -2.520390
C 3.048050 0.798970 -1.757810
C 2.817550 1.560380 -0.581540
C 1.895690 2.594970 -0.271230
C 1.865230 0.610250 -2.520560
C -1.763890 -1.182440 -2.219460
C -0.540250 -0.515970 -2.493450
C -0.422880 0.896490 -2.405640
C 0.831150 1.539860 -2.232450
C 0.958440 2.634810 -1.337280
C 2.469110 0.724330 1.768060
C 1.575620 1.784750 2.074180
C 3.093720 0.674970 0.493740
C 1.413160 2.759240 1.054160
C 0.162900 3.396290 0.836360
C -1.240610 2.706830 -0.862990
C -0.005270 3.344110 -0.572690
C -2.955300 -0.413450 -2.144530
C -2.662540 0.933250 -1.802230
C -1.453020 1.677050 -1.817400
C 3.242120 -1.685200 0.389990
C 2.446340 -1.632840 1.564930
C 3.595680 -0.449420 -0.213520
C 2.125590 -0.512180 2.375920
C 0.913870 -0.258410 3.071460
C 1.452480 -2.563770 1.162380
C 0.271550 -2.409180 1.935690
C 0.053130 -1.371540 2.880170
C -0.803390 2.627160 1.537210
C -0.687920 1.520850 2.419950
C 0.599940 1.109300 2.854090
C -0.793880 -2.604170 1.017400
C -1.822700 -1.936770 1.733330
C -3.455640 -0.428220 0.847870
C -2.897690 -1.733870 0.827980
C -1.733040 2.595790 0.464270
C -2.733120 1.589230 0.520170
C -2.661190 0.556660 1.492320
C -1.571030 0.409230 2.390220
C -1.280220 -0.962740 2.612770
C -3.404270 1.020460 -0.594480
C -3.916570 -1.175680 -1.429430
C -4.089150 -0.208780 -0.403900
