52 

C -3.241100 -2.078870 0.886530
C -2.021060 -2.740210 1.187530
C -0.082490 -3.121870 -0.208940
C -1.483280 -2.908210 -0.115960
C 1.848840 -2.728620 0.460910
C 0.546490 -2.798830 1.022540
C -3.039250 -1.646990 -0.451080
C -3.230260 -0.275350 -0.765110
C -2.746780 0.442880 -1.890670
C -1.655670 -0.083900 -2.631270
C -1.225760 -1.364680 -2.193850
C -1.921680 -2.102080 -1.199670
C -2.640640 1.854830 -1.783040
C -1.395970 2.227090 -2.356340
C 2.469680 1.457030 -1.240020
C 1.186800 1.759910 -1.768250
C 0.568820 -2.672390 -1.388020
C 0.167010 -1.631810 -2.266790
C 2.353500 -0.785030 -2.192040
C 1.013850 -0.539960 -2.594260
C 0.561720 0.806000 -2.614350
C -0.816140 1.036460 -2.868870
C 3.116530 0.235470 -1.565320
C -2.664370 2.247870 -0.418710
C -2.768160 1.460580 0.758520
C -3.266730 0.141440 0.591880
C -1.533560 3.028300 -0.060050
C 0.213250 2.719530 1.665030
C -1.148070 2.683760 1.262530
C 2.209470 2.542570 1.039960
C 0.959180 2.901700 0.470500
C 0.568680 2.675360 -0.875870
C -0.783140 2.884580 -1.256970
C 2.948310 1.868250 0.032080
C -3.086210 -0.854100 1.588250
C -1.971730 -0.752590 2.462360
C -1.302640 0.495440 2.568550
C -1.841010 1.580480 1.827390
C 0.709180 1.729430 2.553970
C 0.103770 0.461850 2.761860
C 2.062170 -0.697810 1.934880
C 0.744510 -0.768820 2.459530
C 0.070520 -1.952740 2.058920
C -1.342850 -1.996040 2.188890
C 2.566420 -1.617510 0.977620
C 2.092990 1.796460 2.242530
C 2.703270 0.567860 1.875770
C 3.373230 -1.470250 -0.181600
C 3.743290 -0.108300 -0.338360
C 3.531890 0.786760 0.743570
C 1.913450 -2.816550 -0.954900
C 2.861660 -1.878360 -1.441820
