52 

C 1.684650 2.582180 -0.701720
C 2.638400 1.598270 -1.074350
C 4.103180 -0.255740 -0.328650
C 3.343920 0.911670 -0.050980
C 0.133930 3.294990 0.699500
C 1.406490 2.664940 0.688360
C 4.226990 -1.086750 0.816130
C 1.706470 1.664090 1.650040
C 2.869880 0.935100 1.287380
C 3.394970 -0.324920 1.678570
C 3.824800 -2.256130 0.118140
C 2.760340 -2.124410 1.048770
C 0.435420 -2.146040 0.560580
C 1.755230 -2.311130 0.063140
C -0.614180 2.542660 1.643370
C -0.414530 1.354630 2.395230
C 0.890600 0.795690 2.422550
C 1.158760 -0.597920 2.372850
C 2.394740 -1.241100 2.098800
C -1.287390 0.237990 2.483250
C -1.114390 -1.121810 2.112390
C 0.219710 -1.500250 1.806790
C -1.962090 -1.890830 1.271850
C 3.371190 -1.800360 -1.147940
C 3.512460 -0.462760 -1.603260
C 2.595870 0.538950 -2.019060
C 1.959810 -1.888660 -1.277070
C -0.218920 -1.497900 -1.806980
C 1.113530 -1.116160 -2.115880
C 1.287230 0.244040 -2.484860
C -2.377940 -1.250790 -2.094380
C -1.151950 -0.593480 -2.379750
C -0.895330 0.802550 -2.421220
C 0.411300 1.357820 -2.391360
C 0.614880 2.542060 -1.634680
C -1.760820 -2.311580 -0.069390
C -0.439070 -2.137080 -0.558210
C -2.773530 -2.124250 -1.047000
C -1.402820 2.664590 -0.679270
C -0.132990 3.299980 -0.695190
C -3.344730 0.913240 0.041220
C -3.391690 -0.338270 -1.699360
C -2.869250 0.919290 -1.296810
C -1.709390 1.663720 -1.638820
C -2.644100 1.596130 1.070410
C -1.683750 2.578080 0.709980
C -4.104140 -0.250260 0.334420
C -4.207860 -1.085380 -0.809370
C -3.835980 -2.267360 -0.115800
C -2.594830 0.540730 2.019150
C -3.509950 -0.463550 1.606370
C -3.373140 -1.798530 1.142130
