52 

C 1.307680 -2.852390 0.091900
C 2.542650 -2.273660 -0.303640
C 0.780880 -2.632940 1.392240
C 3.649730 -0.491430 -0.345380
C 3.627940 0.883420 0.009340
C 3.101640 1.322940 1.252860
C 2.951010 -1.270370 0.614600
C 1.175330 -1.599120 2.282260
C 2.292660 -0.863860 1.805330
C 2.350200 0.513610 2.145510
C 1.207610 2.404800 1.805750
C 2.275710 2.412760 0.869990
C 0.049850 2.943940 1.184900
C 0.101740 -0.919210 2.915980
C 0.035610 0.499240 2.902250
C 1.215390 1.232080 2.606450
C 2.944740 1.414040 -1.116780
C 0.405350 1.631190 -2.221140
C -0.986840 1.605440 -2.500140
C 2.048100 2.345890 -0.530090
C -0.061910 3.126520 -0.218920
C 0.790110 2.504430 -1.169440
C -1.420150 3.189830 -0.628340
C -1.832520 2.509690 -1.804680
C 1.129830 0.450720 -2.534470
C 2.470740 0.471720 -2.067500
C 3.233390 -0.665640 -1.691760
C 0.533930 -0.832060 -2.660660
C 1.213790 -1.963690 -2.137430
C 2.556220 -1.913710 -1.677200
C -1.585790 0.327890 -2.660230
C -0.883330 -0.905230 -2.610480
C -1.420940 -2.006840 -1.893600
C -0.752090 -2.894850 -1.010110
C 0.657850 -2.842740 -1.170670
C -2.766140 0.433640 -1.877910
C -3.155580 -0.645250 -1.040770
C -2.621590 -1.957510 -1.137000
C -2.891850 1.718560 -1.286630
C -2.874410 1.747280 0.132990
C -2.998690 0.639000 1.012050
C -3.391750 -0.557870 0.356740
C -1.985710 2.752240 0.598490
C -0.962410 -1.786950 2.553930
C -2.175770 -1.112720 2.254540
C -2.219680 0.302820 2.150720
C -1.131160 1.166320 2.443840
C -1.148080 2.360890 1.676300
C -2.561950 -2.526080 0.162850
C -1.239480 -3.019530 0.317800
C -0.623120 -2.751640 1.568690
C -2.958700 -1.625630 1.186660
