52 

C -3.123360 -1.275920 0.866110
C -3.213230 -0.143530 0.013950
C -3.000850 1.213620 0.373900
C -2.329710 1.436660 1.605290
C -1.803290 0.297730 2.270360
C -2.293150 -1.004390 1.985730
C -2.686050 2.250940 -0.543330
C -2.197300 3.404740 0.124760
C 0.187850 -0.820530 2.892000
C -0.466050 0.429510 2.729620
C -1.858570 2.749310 1.338070
C -2.130990 1.672100 -1.715230
C -2.135460 0.309700 -2.115730
C -2.850010 -0.592110 -1.283470
C -1.107390 -0.339760 -2.849050
C -1.022210 3.312050 -0.667100
C -0.945240 2.449580 -1.792580
C -0.822290 -1.696320 -2.540920
C -1.524570 -2.483600 -1.590400
C -2.766460 -1.998020 -1.102180
C 0.588860 -1.730690 -2.386180
C 1.057490 -2.267490 -1.157840
C 2.360740 -1.827290 -0.805340
C 4.067120 -0.326470 -0.710730
C 3.121430 -0.919350 -1.588580
C 2.329380 -0.127000 -2.461100
C 1.066970 -0.528870 -2.972270
C 1.290500 1.944520 -1.451280
C 0.160050 1.699960 -2.275190
C 0.054730 0.467040 -2.971770
C 2.393780 1.104230 -1.756540
C -3.093290 -2.517810 0.178210
C -1.904390 -2.995690 0.790240
C -0.256340 -2.057080 2.353380
C -1.607450 -2.247610 1.960140
C 0.301120 -2.731130 -0.049040
C -1.060130 -2.999340 -0.351540
C 0.609360 -2.496670 1.317140
C 3.712750 -0.677210 0.618870
C 2.700980 -1.672110 0.564550
C 1.828220 -1.858710 1.669040
C 3.429620 0.347110 1.560700
C 3.222230 1.333850 0.560820
C 3.417830 0.934070 -0.787640
C -0.008240 3.116770 0.307680
C 2.022950 2.020220 0.888070
C 1.190380 2.510250 -0.152660
C 1.587860 -0.870140 2.659690
C 2.284610 0.339740 2.400560
C 1.538710 1.516020 2.124090
C 0.141790 1.652210 2.339720
C -0.461320 2.692900 1.584980
