52 

C -2.436520 1.336250 1.475650
C -3.548170 0.777030 0.791510
C 1.474230 1.682700 2.766380
C 0.061900 1.564090 2.677980
C -3.971270 -0.496630 1.255420
C -2.813360 -0.726880 2.044550
C -1.988560 -1.788920 1.588120
C -0.633160 0.329000 2.767670
C -2.012800 0.379010 2.435180
C 2.042440 0.402620 2.531730
C 1.437690 -0.871960 2.369670
C 0.026470 -0.904760 2.524250
C -0.610680 -1.990100 1.866560
C 0.072500 -2.916690 1.035200
C -3.499440 -1.139910 0.080680
C -3.402410 -0.414450 -1.136180
C -2.378220 -1.996900 0.238540
C -1.413940 -2.316650 -0.753640
C -0.295960 -3.080860 -0.326330
C -3.459510 0.907080 -0.619760
C -2.394290 1.545580 -1.308330
C -1.925880 0.832950 -2.443790
C -0.675450 1.094980 -3.063680
C -0.049250 2.295050 -2.634500
C 0.220720 -0.006180 -3.092000
C 0.935470 -2.201030 -2.100440
C -0.055690 -1.291490 -2.555230
C -1.300600 -1.487450 -1.900840
C -2.285920 -0.470970 -2.011810
C 0.861840 -3.238150 -1.133290
C -0.353110 2.748840 -1.323680
C -1.468010 2.316880 -0.557590
C -1.477800 2.180780 0.855860
C 0.745950 3.067160 -0.482730
C 0.789510 2.989900 0.934530
C -0.320780 2.447980 1.634530
C 1.769410 2.531760 -1.308760
C 1.849780 2.678530 1.826320
C 2.798860 2.046620 0.979930
C 2.632380 1.843310 -0.415550
C 1.335480 1.992380 -2.548590
C 3.096450 -0.166460 0.462230
C 2.993080 0.755200 1.537550
C 2.859820 -1.565660 0.514140
C 1.461690 0.592080 -2.747750
C 2.271370 -0.193420 -1.885280
C 2.836830 0.484290 -0.772900
C 2.598910 -2.376310 -0.622170
C 2.168650 -1.601340 -1.731550
C 1.940340 -3.586270 -0.277680
C 2.007190 -1.916330 1.594170
C 1.481800 -3.076260 0.965730
