52 

C 1.344790 2.272780 1.229920
C 2.759980 2.225590 1.337490
C 0.705310 2.388430 -0.032780
C -0.713180 2.389870 0.034420
C -2.754940 2.223810 -1.341940
C -1.339840 2.272620 -1.234520
C 4.216900 1.083180 0.188290
C 3.230190 2.087730 0.004680
C 1.158760 1.932380 -1.298870
C 2.567600 1.776890 -1.212220
C 3.982440 0.311720 -0.980600
C 3.004250 0.647310 -1.953720
C -0.860800 1.513550 -2.334890
C 0.511160 1.149800 -2.291200
C 2.470940 -1.577290 -1.577750
C 3.336920 -0.914010 -0.668570
C 1.630010 -2.588220 -1.041650
C 0.800920 -0.204610 -2.604480
C 2.182340 -0.433780 -2.368660
C 0.369700 -2.562070 -1.695440
C 0.022520 -1.372600 -2.389060
C 1.503600 -2.694360 0.368760
C 1.956710 -1.687460 1.261730
C 3.027370 -0.930060 0.717210
C 3.529940 0.319050 1.168410
C 2.906330 1.093540 2.182170
C 0.259290 -3.313840 0.659230
C 1.312860 -0.932580 2.277660
C 1.721380 0.400700 2.545980
C -1.710070 0.396680 -2.553470
C -1.323770 -0.938700 -2.263640
C -0.254620 -3.313000 -0.664530
C -2.573870 1.767020 1.212310
C -1.166240 1.932490 1.300150
C -3.222140 2.098440 -0.006850
C -0.510400 1.157060 2.292680
C 0.864180 1.511650 2.328170
C -3.009130 0.638730 1.956590
C -0.802400 -0.196680 2.606710
C -0.362790 -2.562510 1.691210
C -0.033380 -1.370440 2.388980
C -2.181450 -0.438600 2.369800
C -4.207030 1.090300 -0.180140
C -3.986560 0.304850 0.982130
C -1.627580 -2.591400 1.046300
C -3.332870 -0.915660 0.666750
C -2.472020 -1.581580 1.578840
C -2.892580 1.095150 -2.192600
C -3.536060 0.336590 -1.179210
C -3.035330 -0.910980 -0.721730
C -1.968140 -1.688450 -1.244280
C -1.499230 -2.699030 -0.363800
