52 

C -2.485840 2.725420 0.069470
C -2.208600 2.148770 1.337200
C -2.642890 0.870530 1.777670
C -1.277440 3.180060 -0.521750
C 2.462060 1.484840 -1.280390
C 1.239910 2.190810 -1.123730
C -2.100180 0.002070 2.761400
C -0.868840 2.408240 1.729880
C 1.216230 1.463720 2.364340
C -0.188580 1.487790 2.570470
C -0.736190 0.269390 3.052200
C 3.106610 1.648470 1.056770
C 1.794340 2.150040 1.263770
C 0.977750 2.623850 0.203050
C -0.353710 2.985370 0.539080
C 3.464130 1.346220 -0.283840
C -2.228770 -1.361640 2.386950
C -2.748940 -1.336430 1.065860
C -2.409530 -2.217950 0.005560
C -0.982070 -2.039630 2.437040
C -0.678370 -2.935570 1.378000
C -1.462210 -3.250280 0.236510
C 1.908950 0.226620 2.442950
C 1.196760 -1.001050 2.396760
C -0.128870 -1.005840 2.905810
C -3.073940 0.510250 -0.601450
C -2.649420 -0.363300 -1.637400
C -3.053750 0.008400 0.726770
C -2.324320 -1.707960 -1.316980
C -1.241830 -2.333280 -1.990500
C -2.011130 0.492650 -2.573560
C -0.827000 -0.096340 -3.090680
C -0.498630 -1.450760 -2.818330
C -0.778820 -3.248280 -1.008240
C -2.926000 1.871810 -0.976500
C -2.175880 1.847630 -2.181970
C -1.022220 2.570770 -1.778770
C 0.270630 0.780770 -2.884870
C 0.218700 1.949910 -2.080600
C 1.348220 -0.138640 -2.785160
C 3.306890 -0.525820 -1.271610
C 2.495960 0.312740 -2.081320
C 0.563290 -2.991600 -0.621820
C 2.555830 -1.653280 -0.845940
C 1.399970 -2.206110 -1.458160
C 0.897890 -1.466670 -2.561590
C 3.165070 0.452760 1.820500
C 3.558440 -0.490500 0.834640
C 2.643810 -1.543260 0.567080
C 1.537240 -1.923080 1.371870
C 0.608280 -2.824200 0.787580
C 4.147030 0.101570 -0.314020
