52 

C -1.576630 0.413050 2.876890
C -2.507960 -0.180200 1.984010
C -2.332630 -1.488740 1.461050
C -1.299980 -2.827460 -0.789320
C 0.762360 -3.010130 0.348930
C -0.641320 -2.831650 0.468750
C -1.092350 -2.158120 1.634680
C -0.314750 -1.612330 2.690110
C -0.571260 -0.425680 3.426650
C 1.381640 -2.996100 -0.928860
C -2.641860 1.861080 0.584390
C -1.562890 2.382100 1.346560
C -3.090200 0.555700 0.918210
C -1.079880 1.684370 2.485140
C -2.574810 2.236570 -0.783440
C -1.382330 2.994090 -0.927040
C 0.703870 2.421770 -2.013840
C -0.715920 2.416640 -2.040130
C 0.565740 0.425000 3.428650
C 0.323650 1.612590 2.688710
C 1.096410 2.160710 1.630930
C 0.637770 2.833300 0.467400
C -0.766530 3.009760 0.352410
C 1.298520 2.826570 -0.789500
C -2.579890 1.201240 -1.755320
C -3.135710 -0.070660 -1.455650
C -3.521080 -0.321340 -0.112120
C -1.351000 1.220290 -2.466620
C -2.650470 -1.310760 -1.948740
C -1.349260 -1.250840 -2.514210
C -0.704650 -0.009630 -2.759930
C 2.644480 1.309330 -1.950420
C 1.342570 1.256700 -2.514980
C 0.715290 0.006000 -2.757270
C 1.354980 -1.227180 -2.463130
C -2.603780 -2.277970 -0.910120
C -3.072870 -1.617460 0.256100
C 0.710200 -2.419220 -2.039180
C -0.709560 -2.415440 -2.013290
C 3.520660 0.322190 -0.111090
C 3.137090 0.072900 -1.455400
C 2.585400 -1.200850 -1.754750
C 3.072970 1.619290 0.254360
C 2.602300 2.277530 -0.912530
C 1.575110 -0.408900 2.878900
C 2.508150 0.178090 1.983720
C 2.334370 1.486440 1.459860
C 2.641690 -1.861580 0.582610
C 1.560930 -2.383220 1.341770
C 1.088310 -1.682760 2.482990
C 3.091410 -0.557100 0.918010
C 2.573690 -2.237990 -0.784900
