52 

C -2.608400 -1.995490 -0.754640
C -3.390160 -0.811200 -0.808390
C -1.548810 -2.153780 -1.686730
C -0.239800 -3.081010 0.177610
C -0.386380 -2.815360 -1.209650
C -1.165100 -1.139220 -2.603200
C -1.696470 0.170080 -2.461920
C -2.748950 0.242920 -1.511380
C -0.892970 1.312740 -2.717290
C 0.213860 -1.292100 -2.905800
C 0.960150 -0.121930 -3.206230
C 0.398710 1.179560 -3.292010
C 1.907480 -2.239760 -1.348060
C 0.661500 -2.312330 -2.025350
C -0.918460 2.361580 -1.760310
C -1.755650 2.322740 -0.613940
C -2.769410 1.328530 -0.596210
C -1.350620 2.786640 0.665610
C 0.400050 2.861700 -1.593390
C 0.798010 3.181600 -0.268330
C -0.061060 3.352060 0.849430
C 1.158140 2.098120 -2.520030
C -1.651400 2.036330 1.833110
C -2.620440 1.001820 1.747710
C -3.391480 0.810930 0.570650
C -0.451230 1.763170 2.541240
C -0.124620 0.414880 2.844570
C 1.255600 0.081260 2.859670
C 0.426030 2.764390 2.046860
C -3.961080 -0.484220 0.450020
C -3.139030 -1.201490 1.358980
C -1.209540 -2.657040 1.124350
C -2.473820 -2.229290 0.639520
C -1.027700 -0.647130 2.574240
C -2.346600 -0.331190 2.153390
C -0.575730 -1.930110 2.166620
C 2.954530 -1.174530 1.872980
C 1.702240 -1.228330 2.540330
C 0.809370 -2.228740 2.073030
C 1.701540 2.244860 1.701030
C 3.073120 0.214030 1.600450
C 2.144820 1.033730 2.295260
C 2.161410 1.327760 -1.874690
C 3.134850 0.447330 0.201090
C 2.519410 1.509560 -0.512600
C 1.885100 2.476010 0.312030
C 3.281320 -0.842710 -0.374040
C 2.618130 -1.039490 -1.614160
C 2.140020 0.020600 -2.429030
C 0.999550 -2.933170 0.854810
C 3.105060 -1.835880 0.625430
C 2.094910 -2.619450 0.007360
