52 

C 0.243120 0.624900 3.430350
C 1.234020 -0.293270 2.992610
C -0.326820 -1.908820 1.950030
C 0.991030 -1.502320 2.288530
C 1.946340 -2.077130 1.409060
C -0.472770 -2.898870 0.942540
C 0.502060 -3.603890 0.188160
C 1.809490 -3.115790 0.450460
C -1.337290 -0.965630 2.275370
C -2.542490 -1.035960 1.527670
C -1.030640 0.263370 2.917200
C -3.373520 0.078830 1.239420
C 2.269970 0.617070 2.654190
C 2.818250 -1.091270 0.875840
C 2.853080 0.219020 1.422110
C 2.852490 -1.340650 -0.521690
C 2.817730 -0.214030 -1.385420
C 2.268710 -2.606360 -0.792940
C 2.854510 1.118770 -0.896780
C 2.815030 1.306860 0.510180
C 0.500000 1.636710 -3.214720
C 2.272670 1.986240 -1.858750
C 1.808620 1.168780 -2.923110
C -0.478940 0.634040 -2.984870
C 1.233290 -2.442980 -1.750900
C 0.991500 -1.228650 -2.446200
C 1.949200 -0.182040 -2.508400
C -1.333250 -1.489270 -1.973810
C -0.326280 -0.732200 -2.629050
C -2.537940 -0.803150 -1.666490
C 1.943210 2.264240 1.093110
C 1.811020 1.948360 2.471240
C 1.237230 2.738030 -1.243000
C 0.986410 2.733690 0.154690
C 0.505630 1.961780 3.029990
C 0.249040 2.657060 -2.259550
C -0.328600 2.642310 0.682790
C -0.470630 2.265810 2.044610
C -1.022760 2.397450 -1.683730
C -1.336230 2.453900 -0.299890
C -2.542360 1.842360 0.133390
C -2.659770 1.290510 1.436510
C -1.585640 1.442290 2.352810
C -3.373210 1.034850 -0.687600
C -4.056890 -0.004240 -0.002550
C -2.659390 0.601460 -1.836110
C -1.585710 1.322910 -2.421880
C 0.247980 -3.286080 -1.172310
C -1.025070 -2.659760 -1.231230
C -3.362980 -1.113990 -0.553330
C -2.657800 -1.893290 0.401560
C -1.584610 -2.762000 0.069880
