52 

C 2.532450 -0.088160 2.134780
C 2.889520 0.928990 1.210390
C 3.435680 0.868520 -0.099000
C 1.277250 -0.109420 2.798530
C 2.101050 2.086740 0.977040
C 0.881920 2.082270 1.705250
C 0.456300 1.022040 2.548630
C -2.571090 -0.756290 1.676470
C -1.348750 -0.585110 2.378740
C -0.939110 0.760140 2.576270
C -1.757430 1.824750 2.114270
C 3.313170 1.837480 -1.129800
C 2.384450 2.557280 -0.332440
C 0.191030 3.093260 -0.474950
C 1.332000 2.778730 -1.259680
C -1.327240 2.900860 1.293670
C 0.044510 2.925020 0.927430
C 2.609030 1.209430 -2.191020
C 2.597290 -0.181920 -1.907220
C 0.363360 -0.408210 -2.757080
C 1.520920 -1.046880 -2.238650
C 1.529890 -2.210500 -1.424760
C -0.747180 -1.291440 -2.700540
C -0.731750 -2.504550 -1.962550
C 0.334610 -2.913410 -1.118640
C 0.223180 0.995510 -2.594390
C -0.964460 1.542080 -2.040020
C 1.337940 1.829990 -2.316250
C -0.988030 2.602300 -1.095640
C 3.219720 -0.420820 -0.653450
C 2.234980 -2.503610 -0.227520
C 3.022110 -1.448950 0.305910
C 0.341800 -3.085480 0.290900
C 1.597750 -2.986360 0.946070
C -1.925880 -2.657340 -1.209460
C 2.865410 -1.403690 1.716520
C 1.854540 -2.296690 2.160500
C -1.807420 -2.564640 0.202590
C -0.700410 -2.548080 1.091840
C -0.464960 -1.680670 2.191200
C 0.842740 -1.457570 2.697700
C -2.840980 -1.699880 0.650180
C -3.451420 -1.273800 -0.559050
C -3.675130 0.059910 -0.125880
C -2.784350 -1.663930 -1.750360
C -1.866140 2.899910 -0.020110
C -2.975730 2.022890 0.106730
C -2.973040 1.021340 -0.899940
C -2.076690 0.664690 -1.941950
C -1.991080 -0.678320 -2.395150
C -3.412910 0.304060 1.248190
C -3.013320 1.647550 1.475720
