52 

C -0.914650 2.826700 -1.387460
C -1.995790 1.920660 -1.551130
C -2.035880 0.727530 -2.320120
C -1.856830 -1.949420 -1.500850
C 1.778090 -2.464160 0.173460
C 0.521090 -2.423720 -0.486060
C 0.413850 -1.864340 -1.786930
C -0.816680 -1.303450 -2.220210
C -0.843270 0.042190 -2.673010
C 1.515500 -1.211440 -2.400580
C 0.224960 0.977690 -2.687890
C 0.192550 2.255170 -2.068630
C -2.415000 0.717470 1.873930
C -2.168890 1.789700 0.975980
C -2.646450 1.560210 -0.341500
C -0.709340 3.374300 -0.093460
C -1.110040 2.727030 1.105270
C 1.115860 2.726430 -1.098130
C 0.698370 3.377050 0.093020
C 3.882120 -1.842110 0.296170
C 2.924000 -2.296460 -0.648290
C 2.769290 -1.662110 -1.909260
C 1.393940 0.171590 -2.698750
C -3.462340 0.434260 -0.629560
C -3.295690 -0.369220 1.629150
C -3.787980 -0.576290 0.313400
C -1.516170 -1.208500 2.397190
C -2.774980 -1.658340 1.918010
C -0.416380 -1.862810 1.781610
C -0.189040 2.251270 2.075780
C -0.217390 0.971740 2.691060
C -1.392290 0.174230 2.695780
C 0.851000 0.036460 2.672960
C 0.814920 -1.309910 2.222980
C 1.852820 -1.949360 1.494780
C -2.916410 -2.291040 0.654630
C -3.872940 -1.854300 -0.299690
C -0.520780 -2.418050 0.478820
C -3.186940 -1.452800 -1.476390
C -3.110610 -0.098920 -1.897790
C -1.778880 -2.460550 -0.178290
C 0.910050 2.826500 1.384750
C 1.991560 1.922040 1.554250
C 2.040650 0.725230 2.316920
C 2.416960 0.713520 -1.876450
C 2.171240 1.784170 -0.976580
C 2.643780 1.565080 0.344450
C 3.769980 -0.564020 -0.312390
C 3.299740 -0.373010 -1.638580
C 3.463360 0.443730 0.639890
C 3.108180 -0.111940 1.897450
C 3.187790 -1.465710 1.476280
