52 

C -2.621080 -1.162850 1.952580
C -1.557430 -1.111330 2.891990
C 2.297550 0.029760 2.132420
C 1.027570 -0.411660 2.589420
C -2.367020 -2.027470 0.855140
C -2.623350 -1.707700 -0.504490
C -3.275530 -0.501590 -0.873810
C -1.207130 -2.774420 1.191540
C -1.842330 -1.955600 -1.664240
C -0.749550 -2.807610 -1.353670
C -0.588160 -3.222710 -0.005300
C 0.823530 -3.287090 0.134120
C 0.660120 -1.735180 2.229110
C -0.706500 -2.104820 2.339340
C 1.297900 -2.490470 1.209700
C -2.885320 0.038820 -2.127660
C -2.895400 1.443250 -1.918030
C -1.794150 -0.797120 -2.484050
C -3.287350 1.646710 -0.568430
C -2.508280 2.580410 0.164850
C -1.602290 2.857520 -0.892920
C -0.434490 2.952460 -0.090580
C 0.393850 -2.353810 -2.063030
C 0.498480 -1.065220 -2.650520
C -0.569850 -0.137520 -2.771310
C -0.484060 1.246760 -2.466470
C -1.599310 2.011830 -2.033650
C 1.857540 0.991060 -2.199160
C 0.714710 1.791340 -1.934600
C 0.762840 2.597320 -0.766460
C 1.834210 2.570740 0.165160
C -2.982950 0.139830 1.518370
C -2.154760 1.055210 2.220270
C -3.357270 0.443670 0.182720
C -1.929560 2.194270 1.402780
C -0.574700 2.600770 1.278040
C 0.380470 1.906940 2.067190
C 1.657980 2.213240 1.528100
C 0.132380 0.680520 2.738580
C -1.212030 0.265520 2.930250
C 3.760010 1.503660 0.815250
C 2.742010 1.334400 1.790670
C 3.043270 1.299330 -1.481220
C 3.084060 2.077310 -0.294000
C 1.739300 -0.395040 -2.484120
C 2.393890 -2.091570 -0.828620
C 1.310370 -2.948940 -1.156260
C 2.723120 -0.972650 -1.638600
C 3.714120 0.177040 0.310880
C 2.969910 -0.714960 1.127540
C 2.428890 -1.907780 0.579010
C 3.561800 0.035430 -1.093810
