52 

C -1.083550 -1.818900 2.478060
C -2.437280 -1.512640 2.177800
C -0.298750 -0.784770 3.053580
C 1.074050 -0.874050 2.701490
C 2.706200 -1.499550 1.007900
C 1.496080 -1.782540 1.694950
C -3.415810 -0.070500 0.758240
C -3.226320 0.923070 -0.238480
C -2.488290 2.102060 0.047550
C -2.653720 -0.126980 1.955110
C -0.637750 0.589930 2.945120
C -1.781700 0.968120 2.193540
C -1.796510 2.061030 1.287020
C -1.897030 2.784570 -1.048370
C -0.773560 3.329930 -0.372450
C 1.462820 2.746330 -0.599070
C 0.242770 2.961360 -1.293180
C 0.474550 1.428200 2.668410
C 0.462810 2.458970 1.691730
C -0.685060 2.887570 0.974000
C 1.560010 2.671180 0.815640
C -1.560590 1.993850 -2.178880
C -2.144140 0.719850 -2.408890
C -3.191420 0.334980 -1.530520
C 0.552410 -1.708040 -2.522050
C -1.470040 -0.506900 -2.648020
C -0.060720 -0.461340 -2.816080
C 0.531010 0.812420 -2.606520
C 1.859920 0.730530 -2.112720
C -0.144530 2.018520 -2.281880
C 2.262180 1.732540 -1.190430
C -3.182670 -1.056480 -1.247290
C -3.475490 -1.334590 0.114090
C -2.743770 -2.197520 0.972210
C -2.010210 -1.563250 -1.867740
C 0.044060 -2.613430 -1.553350
C -1.284780 -2.486480 -1.069060
C -1.589190 -2.684010 0.303810
C 0.671100 -2.598250 0.876110
C -0.658890 -2.604040 1.373660
C 3.071780 -1.922600 -0.297410
C 2.179620 -2.598900 -1.170960
C 0.957690 -2.848480 -0.491980
C 3.491850 -0.810310 -1.073790
C 3.707840 0.159090 -0.058860
C 3.190200 1.478500 -0.146070
C 2.526040 -0.522970 -2.074320
C 1.955410 -1.799300 -2.322820
C 1.518690 0.472280 2.779870
C 2.654240 0.768360 1.980310
C 2.711320 1.898870 1.122930
C 3.327110 -0.245260 1.248040
