52 

C 0.975350 2.361530 1.941370
C 2.155730 1.633450 1.636110
C 0.541670 3.141370 0.836680
C 2.680930 1.780870 0.325010
C 3.039070 0.601640 -0.380420
C 2.057410 0.412270 2.354120
C 2.648970 -0.720900 1.735650
C 3.040120 -0.600220 0.375920
C -1.706300 2.370160 1.440620
C -1.236580 1.575100 2.519420
C -0.834520 3.002710 0.515210
C 0.162870 1.529080 2.755860
C 0.783370 0.268980 2.964670
C 0.079000 -0.950750 2.784060
C 0.858250 -2.078880 2.414430
C 2.209850 -2.049010 1.980030
C -2.867660 1.773110 0.882730
C -3.128060 0.613560 1.659960
C -3.603260 -0.267330 0.652640
C -1.275780 -0.876440 2.365050
C -1.968550 0.360870 2.439790
C -2.833900 -1.452110 0.508210
C -1.761400 -1.777020 1.380360
C -0.893040 2.767670 -0.884010
C 0.357690 3.052850 -1.492980
C -3.595070 0.277830 -0.658530
C -2.827870 1.462520 -0.502350
C -1.763060 1.766550 -1.391290
C -3.133130 -0.617830 -1.658960
C -1.973480 -0.357500 -2.436080
C -1.264120 0.871090 -2.374010
C 1.187900 3.412180 -0.398440
C 2.365820 2.687810 -0.721220
C 2.202250 2.051970 -1.980340
C 2.061550 -0.414500 -2.352410
C 2.646770 0.724980 -1.739580
C 0.092210 0.948120 -2.787430
C 0.849990 2.088910 -2.412180
C 0.787690 -0.277150 -2.964700
C -1.711540 -2.365580 -1.440410
C -1.240060 -1.570660 -2.518500
C 0.159910 -1.533190 -2.753250
C -0.834800 -3.003720 -0.523580
C -2.871020 -1.772260 -0.874740
C 0.361130 -3.046190 1.501400
C -0.884850 -2.774320 0.876880
C 2.361740 -2.691410 0.722780
C 1.182730 -3.415690 0.403740
C 0.975900 -2.361670 -1.938260
C 2.156870 -1.634830 -1.632580
C 2.681740 -1.784060 -0.321610
C 0.543570 -3.143940 -0.834830
