52 

C 1.502310 2.859810 0.629680
C 1.938850 2.045690 1.708190
C 2.938120 1.074290 1.435540
C 0.206470 3.438420 0.679400
C 2.794590 -0.128420 2.176700
C 3.171030 -1.192740 1.315300
C 1.503900 -0.009150 2.756670
C 0.672690 -1.144980 2.568060
C -0.672210 -0.853450 2.918490
C -0.602360 2.654160 1.543830
C -0.276090 1.635180 2.477500
C 1.106870 1.347670 2.623100
C -1.074990 0.501410 2.782030
C 3.613600 -0.697540 0.060170
C 3.386340 -1.570030 -1.036910
C 2.481500 -2.479400 -0.428000
C -1.368980 -2.538650 1.314380
C -0.090040 -2.604050 0.700660
C 0.929520 -2.105460 1.554130
C 2.202060 -2.155020 0.925950
C -1.652740 -1.783790 2.483180
C 2.777330 -0.969690 -2.170550
C 1.659130 -1.787530 -2.482400
C -2.206110 -2.155130 -0.922310
C -0.934480 -2.097690 -1.551800
C 0.089420 -2.603770 -0.708000
C 1.372570 -2.540290 -1.312900
C -2.480320 -2.481100 0.432300
C 2.298160 0.363830 -2.077740
C 2.488450 1.256020 -0.989480
C 3.168630 0.650370 0.100010
C 1.719380 2.414380 -0.701090
C 1.073040 0.500650 -2.782600
C -1.106570 1.349580 -2.623690
C 0.276500 1.635540 -2.475870
C 0.601500 2.655530 -1.542900
C -0.669290 -1.140210 -2.566380
C 0.677770 -0.856800 -2.914990
C -1.503450 -0.007190 -2.758390
C -0.208190 3.439110 -0.678720
C -2.940420 1.074520 -1.439210
C -1.939090 2.045040 -1.707350
C -1.502210 2.856620 -0.627120
C -3.173060 -1.193820 -1.318960
C -2.793910 -0.128990 -2.178480
C -3.388950 -1.570460 1.033600
C -3.610180 -0.695860 -0.063020
C -2.778640 -0.977070 2.170180
C -1.720240 2.409700 0.702970
C -3.168810 0.653240 -0.102500
C -2.488790 1.251000 0.991420
C -2.299610 0.356510 2.077930
