52 

C 3.521930 1.235210 -0.099460
C 2.849940 2.154080 -0.948330
C -1.130090 1.868200 -2.159280
C 0.212470 2.197550 -1.834220
C 3.142440 1.328020 1.265760
C 2.631200 0.235740 2.015460
C 2.721130 -1.082320 1.494730
C 2.131000 2.324660 1.254170
C -1.826720 2.640640 0.093100
C -0.476360 2.682030 0.530580
C 0.471630 2.687230 -0.526680
C 1.823870 2.640690 -0.095750
C -2.128440 2.323000 -1.257640
C 1.884940 -2.162290 1.883220
C 1.435820 0.583630 2.698490
C -0.841930 0.089190 2.963910
C 0.477690 -0.435000 2.945340
C 0.680610 -1.777620 2.529840
C -2.498060 1.504920 2.156990
C -1.141910 1.419950 2.569460
C -0.203560 2.192690 1.835430
C 1.139150 1.863550 2.159770
C -2.853390 2.158580 0.947500
C 1.640870 -2.918150 0.706130
C 2.137460 -2.217060 -0.424530
C 0.263640 -3.261160 0.661180
C -0.264290 -3.263310 -0.657080
C 0.235920 -2.578240 -1.795920
C 1.507790 -1.959220 -1.670950
C 1.812670 -0.774440 -2.391950
C -1.812750 -0.774380 2.390990
C -1.509510 -1.958340 1.667960
C -0.238270 -2.577190 1.799900
C 2.962020 -1.186400 0.099170
C 2.833660 0.131700 -2.000890
C 3.305560 -0.045530 -0.673370
C 1.141930 1.416100 -2.570370
C 2.498630 1.502400 -2.160080
C -0.678280 -1.776190 -2.529000
C -0.482470 -0.431920 -2.942660
C 0.839490 0.086090 -2.965420
C -1.437360 0.589440 -2.694820
C -1.883110 -2.163170 -1.884750
C -2.137610 -2.214720 0.420470
C -1.641190 -2.919810 -0.707720
C -3.304780 -0.046870 0.674900
C -2.832810 0.133670 2.001960
C -2.962930 -1.184570 -0.103050
C -3.521910 1.234150 0.101950
C -2.720060 -1.083020 -1.498440
C -2.632070 0.237700 -2.012620
C -3.143590 1.330110 -1.263360
