52 

C 2.285730 0.873850 2.454140
C 1.454230 -1.823050 2.027900
C -0.727750 -1.211740 2.752350
C 0.663220 -0.929450 2.797560
C 1.046740 0.425110 2.983350
C 2.163400 2.123430 1.790790
C 2.566810 1.980890 0.436740
C 1.969630 2.534970 -0.726390
C 0.810560 2.533100 1.926620
C 0.268500 3.160860 0.773970
C 0.855210 3.385310 -0.499540
C -1.619490 -0.107950 2.697950
C -1.161790 1.193410 2.361050
C 0.182530 1.512670 2.688680
C 3.070940 -0.031270 -0.945090
C 2.331000 0.472800 -2.047330
C 3.094180 0.670720 0.289060
C 1.781630 1.775160 -1.911220
C 0.472720 1.981560 -2.421740
C -0.257360 0.828540 -2.814240
C -1.638430 0.945010 -2.505060
C 0.041100 3.071030 -1.619760
C 3.134200 -1.446780 -1.038670
C 2.264470 -1.842300 -2.089180
C 0.056950 -2.672550 -1.663830
C 1.451070 -2.797950 -1.424650
C 0.299820 -0.476450 -2.869460
C 1.685090 -0.657260 -2.614970
C -0.432730 -1.636070 -2.501940
C 2.929780 -2.107370 0.201600
C 2.648740 -1.389520 1.394140
C 2.912240 -0.000530 1.527090
C 1.845840 -2.982580 -0.073160
C -2.558960 -1.889910 1.533540
C -1.206850 -2.192750 1.844300
C 1.006400 -2.747980 1.047880
C -0.780890 -2.838910 -0.529450
C -0.397410 -2.780770 0.836570
C -2.013710 -2.243070 -0.905690
C -3.690610 -0.704880 -0.065260
C -2.877390 -1.848840 0.150290
C -3.409650 0.056860 -1.230270
C -2.399040 -0.212230 -2.190830
C -1.781890 -1.486710 -2.084930
C -1.208620 2.857390 -0.980220
C -3.075910 1.354270 -0.759330
C -2.097130 1.941880 -1.603800
C -2.819350 -0.640900 2.156900
C -3.461010 0.065440 1.105340
C -2.867630 1.269760 0.642790
C -1.746100 1.880180 1.264060
C -1.062980 2.805570 0.431350
