52 

C -3.710040 1.340020 1.232970
C -3.184780 0.404710 2.163430
C -0.115720 -2.569770 1.684080
C -1.051470 -1.612060 2.157140
C -2.665430 2.231370 0.871350
C -2.368350 2.304370 -0.515360
C -1.120910 2.648580 -1.100130
C -1.667760 1.955420 1.843460
C 0.627260 1.573580 2.006990
C -0.387310 2.315640 1.346190
C -0.263300 2.808750 0.020320
C 3.013420 1.195150 1.739810
C 1.874900 2.003980 1.482840
C -0.859200 -0.282960 2.618770
C -1.852550 0.728200 2.533600
C 1.195890 -2.057060 1.866640
C 1.434320 -0.739430 2.339460
C 0.447840 0.264550 2.527350
C 2.693040 -0.156050 2.036610
C -2.291730 0.463680 -2.288040
C -1.077070 0.860690 -2.907340
C -2.893350 1.195350 -1.230130
C -0.611370 2.047140 -2.281280
C 0.776740 2.138770 -1.996280
C 1.541630 0.979430 -2.291960
C 2.712220 1.131140 -1.502520
C 2.004910 2.553250 0.179830
C 0.939260 2.768110 -0.733760
C 3.136500 1.924820 -0.404110
C -3.445530 -0.637090 0.096690
C -2.711700 -1.399150 -0.850560
C -3.574860 0.768320 -0.059830
C -2.220480 -0.942310 -2.102140
C -1.027900 -1.500900 -2.633360
C -2.113860 -2.345490 0.023210
C -1.036710 -3.046890 -0.580340
C -0.573690 -2.589240 -1.842320
C 1.016150 -0.293450 -2.638580
C -0.336190 -0.339870 -3.069240
C 0.816750 -2.613030 -1.554970
C 1.511210 -1.448910 -1.978040
C -2.195940 -1.843750 1.349080
C -3.191410 -0.839480 1.479030
C -0.168210 -3.352830 0.500650
C 1.002300 -3.242490 -0.295690
C 3.340700 -0.027870 -0.975130
C 2.622020 -1.244290 -1.117420
C 3.928040 1.523490 0.704400
C 4.069820 0.195190 0.222800
C 1.793210 -2.636230 0.715900
C 2.783980 -1.762690 0.194630
C 3.434670 -0.800400 1.011330
