52 

C -3.522700 2.027000 -0.689700
C -2.204460 2.539480 -0.816480
C -0.254980 2.466610 0.666990
C -1.664600 2.477820 0.495510
C 0.252750 2.472450 -0.659230
C 3.526930 2.027120 0.695640
C 2.210500 2.545310 0.817910
C -3.398800 1.457250 0.605090
C -3.852780 0.114940 0.697730
C -3.456090 -0.924100 1.580610
C -2.254800 1.592050 1.435500
C 1.623110 1.946060 1.963520
C 0.213110 1.826280 1.844880
C -0.291880 0.639850 2.439800
C -1.702190 0.593500 2.280500
C -2.258820 -0.712440 2.314260
C -2.198310 -2.539690 0.823010
C -3.517930 -2.031400 0.693770
C -0.256490 -2.466780 -0.668800
C 1.666420 -2.477870 0.491020
C 0.255960 -2.470820 0.655620
C 2.207710 -2.546450 -0.820010
C 2.256460 0.726460 2.321160
C 1.707110 -0.582310 2.277980
C 0.297270 -0.652200 2.432730
C -0.213410 -1.834910 1.835380
C -1.623230 -1.935330 1.972150
C 2.246620 -1.589240 1.434500
C -3.397380 -1.459200 -0.600260
C -3.846200 -0.115930 -0.703360
C -1.665410 -2.475790 -0.491690
C -3.448830 0.925610 -1.582970
C -2.254840 -1.591070 -1.433140
C 1.622080 -1.943390 -1.964490
C 0.211770 -1.826570 -1.846690
C -0.291650 -0.639400 -2.441450
C -1.701830 -0.594750 -2.280500
C -2.252900 0.713420 -2.318620
C 1.662730 2.479020 -0.490520
C 2.256010 -0.723510 -2.320170
C 1.707770 0.585670 -2.275630
C 0.298120 0.652360 -2.433500
C -0.216140 1.834500 -1.838080
C -1.626590 1.938030 -1.965740
C 2.248720 1.590290 -1.430320
C 3.841960 0.123480 -0.701500
C 3.396520 1.468220 -0.603230
C 3.452600 -0.920770 -1.581470
C 3.523590 -2.027620 -0.694770
C 3.450440 0.915720 1.576180
C 3.844270 -0.126890 0.696250
C 3.392700 -1.470060 0.604610
