52 

C 2.358200 -2.466480 0.796700
C 3.659360 -1.906210 0.698760
C 1.613130 -1.988600 1.907130
C -1.734220 -2.521180 0.484880
C -0.321750 -2.545440 0.629720
C 0.195270 -2.048720 1.855510
C -0.435220 -1.096980 2.700010
C 3.299120 -0.806400 1.521640
C 3.397420 0.358700 0.715790
C 1.326760 2.881160 -0.888880
C 2.376200 1.986490 -0.550010
C 2.551290 1.497750 0.771710
C 2.139640 -0.742490 2.338950
C 0.063940 0.196910 3.005260
C 1.385740 0.442590 2.548110
C 1.584720 1.634900 1.802940
C 0.694110 2.698990 1.501320
C 0.664790 3.388630 0.260360
C 2.004850 0.473560 -2.507940
C 0.852230 1.262160 -2.765100
C 2.782740 0.934680 -1.413080
C 0.592270 2.444700 -2.023130
C 3.506980 -1.402000 -0.619950
C 2.425580 -1.754120 -1.470290
C 3.555240 0.016790 -0.653380
C 1.816640 -0.932980 -2.455900
C 0.427020 -1.099520 -2.696120
C -0.202920 -2.046970 -1.846340
C -1.620450 -1.989370 -1.908100
C -0.656010 3.393250 -0.261100
C -0.702710 2.697810 -1.498300
C -1.591810 1.633230 -1.802710
C -1.382000 0.444500 -2.550670
C -0.058590 0.199060 -3.003220
C -2.137450 -0.739260 -2.339870
C 0.335470 -2.541860 -0.629090
C 1.747890 -2.519130 -0.484410
C -3.660090 -1.909790 -0.701050
C -2.356130 -2.464850 -0.790460
C -3.397000 0.354750 -0.718560
C -3.297270 -0.810680 -1.523700
C -1.324970 2.883840 0.883210
C -2.375730 1.987160 0.554040
C -2.552750 1.495530 -0.766330
C -2.004750 0.473270 2.507510
C -0.849140 1.257480 2.764570
C -0.601600 2.442760 2.022790
C -2.783490 0.931790 1.412170
C -3.505200 -1.402410 0.616150
C -2.423920 -1.759100 1.464700
C -1.824000 -0.934120 2.452590
C -3.557410 0.016200 0.651140
