52 

C -3.084410 1.133170 1.193510
C -2.770580 1.838260 0.001500
C -1.672790 2.739020 -0.002150
C -2.230840 0.879210 2.299590
C 0.048500 0.781970 2.583010
C -1.028370 1.629310 2.210160
C -1.004970 2.674720 1.249430
C 2.316400 0.553360 2.055600
C 1.214480 1.446820 2.119250
C -1.252850 -1.342020 2.578350
C -2.395940 -0.499690 2.595950
C 0.826030 -2.526670 1.221270
C 0.975970 -1.505990 2.197140
C -0.028300 -0.631890 2.690930
C 2.238070 -0.864080 2.089950
C -3.086870 1.132960 -1.189700
C 0.167300 3.268610 -0.708840
C -1.003580 2.677550 -1.253090
C 1.275920 2.537250 1.211690
C 0.166870 3.269290 0.711170
C 3.363700 0.760390 1.119260
C -3.612510 -0.096630 -0.711970
C -3.149670 -1.126630 -1.572960
C -1.030930 1.630260 -2.211720
C -2.234340 0.881260 -2.297090
C -2.391200 -0.498090 -2.595760
C -3.152780 -1.125610 1.570360
C -2.535790 -2.073540 0.711760
C -3.609050 -0.093810 0.708030
C -2.537480 -2.072130 -0.708270
C -1.444150 -2.334430 -1.575610
C -1.440740 -2.332200 1.578000
C -0.453710 -2.864330 0.706760
C -0.448320 -2.864670 -0.713240
C 0.831270 -2.520630 -1.223870
C 2.242580 -0.874040 -2.079130
C 0.975280 -1.502560 -2.203330
C 1.276640 2.540310 -1.214230
C 1.218990 1.448170 -2.120010
C 0.049920 0.785900 -2.579550
C -0.031340 -0.627440 -2.690540
C -1.251410 -1.344810 -2.575580
C 2.312430 0.544150 -2.060310
C 3.212080 -1.378030 -1.172230
C 3.356630 0.765440 -1.123780
C 4.097600 -0.371150 -0.704820
C 3.076640 1.586460 0.000490
C 2.014560 2.529000 -0.001070
C 4.084420 -0.394370 0.714940
C 1.532490 -2.686000 -0.000200
C 2.820140 -2.087390 -0.006200
C 3.188010 -1.393980 1.177130
