52 

C 2.153990 -1.928690 0.832550
C 0.468320 -2.803970 -0.668060
C 1.750190 -2.217120 -0.498000
C 2.196930 -1.511600 -1.646530
C -1.475570 -2.867890 -1.350640
C -0.222890 -2.420510 -1.847760
C 3.293490 -1.137980 1.137090
C 3.363110 -0.735330 -1.414480
C 3.805410 -0.597540 -0.072170
C 3.076450 0.526750 -1.998800
C 1.175600 2.300380 -1.019130
C 0.239190 2.922410 -0.151460
C 1.779350 0.504480 -2.576340
C 0.883040 1.530570 -2.176020
C -1.026630 3.160540 -0.749340
C -0.483120 1.254460 -2.447800
C -2.567090 1.998260 -1.427380
C -1.245370 2.294780 -1.853480
C 0.040870 -1.240800 -2.592890
C 1.409650 -0.865270 -2.635950
C -2.355770 -1.761500 -1.483350
C -2.073640 -0.489580 -2.048270
C -0.823960 -0.114640 -2.608750
C -2.802410 0.599860 -1.501990
C 3.330560 1.214750 -0.782850
C 4.082280 0.737840 0.323460
C 2.301170 2.004370 -0.205530
C 3.340690 0.892630 1.524510
C 3.054520 -0.292450 2.252620
C 1.363360 -1.727310 1.994800
C 2.279130 1.776710 1.195960
C 0.181910 2.603310 1.231070
C 1.065380 1.740480 1.932160
C 0.742890 0.551970 2.639230
C 1.698750 -0.498010 2.621570
C -0.608470 0.116030 2.622150
C 0.039280 -2.182240 1.757430
C -0.210380 -2.925290 0.573360
C -1.190270 2.427450 1.551430
C -1.433270 1.202530 2.227430
C -0.860910 -1.253250 2.343140
C -2.121540 -1.701560 1.867460
C -2.430880 -2.639730 0.847380
C -1.469130 -3.267180 0.012060
C -2.702980 0.765530 1.765590
C -3.020820 -0.616540 1.692920
C -2.881140 2.535180 -0.150860
C -1.758750 3.147140 0.467320
C -3.287580 1.446430 0.665120
C -3.048480 -2.019890 -0.271000
C -3.513780 -0.847610 0.381430
C -3.500680 0.408650 -0.280400
