52 

C -2.770260 1.958840 -1.513280
C -2.716570 0.752570 -2.260660
C -0.462570 -2.114810 -2.287490
C -1.601040 -1.289280 -2.484970
C -1.557230 0.102970 -2.761110
C -1.534980 2.575780 -1.181660
C -0.371900 2.025650 -1.782690
C -0.369700 0.864980 -2.600870
C 1.964370 0.685620 -2.368670
C 0.766630 0.027230 -2.754040
C 0.713910 -1.383380 -2.599690
C -1.634710 3.017740 0.164140
C 0.760700 2.386420 -1.005780
C 1.957430 1.836220 -1.536470
C -2.339930 -2.265910 -0.258790
C -1.178730 -3.041480 -0.000630
C -2.535650 -1.496480 -1.436140
C -0.335000 -2.939080 -1.138230
C 1.011910 -2.829380 -0.702010
C -0.904270 -2.914970 1.386860
C 0.415430 -2.598630 1.804970
C 1.283500 -2.709170 0.686630
C 2.749040 -1.291260 -1.366330
C 1.612770 -2.059870 -1.733160
C 3.946490 0.730320 -1.033170
C 3.100850 -0.020070 -1.892380
C -2.690010 -1.793160 1.033660
C -1.804300 -2.083790 2.104870
C -3.045080 -0.419410 1.090180
C -3.357700 0.314900 -0.084360
C -3.207990 -0.247000 -1.379850
C -2.365900 0.186460 2.180180
C -3.281220 1.727380 -0.208750
C -2.651400 2.352970 0.899580
C -2.122870 1.567830 1.958180
C 0.670530 -1.460340 2.614740
C -0.187180 -0.368760 2.913610
C -1.513940 -0.825720 2.696000
C 1.965080 -1.049880 2.199870
C 2.370130 0.311160 2.197600
C 1.425340 1.362070 2.337010
C 0.100270 1.005800 2.702700
C -0.781980 1.983620 2.171710
C 3.745530 0.032640 0.187190
C 3.079230 -1.209100 0.012320
C 2.317410 -1.806580 1.051090
C 3.379930 0.798030 1.326010
C 2.984120 1.998820 0.679590
C 3.122890 1.845350 -0.725270
C -0.542160 2.819870 1.049390
C 1.717240 2.251460 1.269180
C 0.703470 2.694810 0.379170
