52 

C 1.449440 2.524130 -1.319140
C 0.059200 2.696640 -1.551610
C 1.932540 2.676070 0.007530
C -0.740720 3.121030 -0.457740
C -2.126410 2.811350 -0.436600
C 3.441490 0.913010 -0.415240
C 2.812070 0.600200 -1.649140
C 3.053180 1.943690 0.481060
C 1.837300 1.476360 -2.195620
C 0.744790 0.900260 -2.896320
C 2.581580 -0.798600 -1.731060
C 1.603450 -1.367960 -2.588730
C 0.636530 -0.492680 -3.150300
C -2.460440 1.748100 -1.316600
C -1.606180 1.050070 -2.210750
C -0.355900 1.679030 -2.450850
C 2.787730 -1.262220 -0.404780
C 3.372510 -0.248220 0.399150
C 0.996050 -2.556510 -2.104100
C 2.931200 -0.026380 1.730500
C 2.754620 1.382480 1.750850
C 2.074630 -0.961750 2.369140
C 1.724370 -2.110810 1.611870
C 1.096330 -2.863460 -0.721280
C 1.955410 -2.230950 0.215920
C 0.922040 -0.446310 3.019020
C 0.501390 0.874320 2.709890
C 1.440320 1.766300 2.127400
C 1.087160 2.731120 1.147180
C -0.280420 3.005190 0.880600
C 0.054970 -1.570390 3.051700
C -0.861940 1.138660 2.413310
C -1.227080 2.280300 1.651860
C 0.536380 -2.607940 2.210170
C -1.262490 -1.303810 2.593770
C -1.733590 0.018210 2.377450
C -2.879190 0.201650 1.558680
C -3.307220 1.369990 0.874420
C -2.422590 2.480130 0.912100
C -1.566870 -2.307290 1.636260
C -2.458260 -1.998450 0.574890
C -3.275090 -0.841710 0.680560
C -1.010120 -2.864240 -1.240040
C -0.159570 -3.211150 -0.157130
C -0.404930 -3.013890 1.227540
C -2.173620 -2.176230 -0.804900
C -0.378780 -2.460460 -2.446190
C -3.452890 1.122830 -0.516300
C -3.418910 -0.292890 -0.621180
C -2.553730 -0.997470 -1.499510
C -1.664160 -0.355890 -2.401430
C -0.605550 -1.143460 -2.926300
