52 

C 1.158920 -1.392150 2.613160
C 0.026910 -0.709150 3.131460
C 2.276420 -0.606790 2.224630
C -0.027410 0.709870 3.131920
C -1.159320 1.392250 2.612650
C -1.034270 -1.500180 2.617020
C -2.228830 -0.809220 2.282190
C -2.277790 0.608730 2.223310
C 2.579810 -2.006570 0.139710
C 1.481840 -2.808710 0.549100
C 2.965650 -0.978430 1.040000
C 0.803390 -2.459580 1.746730
C 0.908400 -3.228870 -0.680160
C -0.615090 -2.488250 1.687230
C -2.458080 -2.170990 0.206020
C -1.193510 -2.779340 0.423430
C -0.498610 -3.065850 -0.781340
C -2.993000 -1.297290 1.189360
C 3.429000 0.427840 -0.927230
C 2.764880 -0.500300 -1.772230
C 3.529320 0.193530 0.469710
C 2.521060 -1.803870 -1.264550
C 1.450950 -2.561360 -1.809990
C 1.869740 1.571930 -2.121950
C 2.830090 1.705740 -1.084480
C 0.720650 2.399180 -2.013430
C 0.474120 -1.813000 -2.518680
C 0.561660 -0.428680 -2.822900
C 1.793050 0.212060 -2.523600
C 2.993390 1.296680 1.185460
C 2.230450 0.811410 2.280410
C 1.035140 1.499550 2.618240
C 2.460090 2.173670 0.204170
C 0.504210 3.064860 -0.777910
C 1.195270 2.778730 0.429170
C 0.611110 2.487180 1.690200
C -0.902930 3.229860 -0.682140
C -1.481460 2.810290 0.544950
C -0.807580 2.459670 1.744690
C -1.454860 2.563420 -1.808040
C -0.717910 -2.397550 -2.014930
C -1.870440 -1.574930 -2.121920
C -1.792210 -0.215080 -2.523350
C -0.565330 0.435260 -2.820490
C -0.474210 1.819190 -2.515790
C -2.830160 -1.708150 -1.083850
C -3.529780 -0.197520 0.469080
C -3.429290 -0.430170 -0.928130
C -2.522200 1.801420 -1.263420
C -2.579530 2.005790 0.140640
C -2.968000 0.976050 1.037930
C -2.763690 0.497820 -1.772060
