52 

C 2.197050 -2.185880 0.977140
C 3.004490 -1.022420 0.872560
C -0.483610 -3.027800 -0.974340
C 1.641840 -2.494490 -0.292900
C 0.469210 -3.212300 0.062310
C 0.306580 -3.155740 1.471850
C 4.080420 0.968810 -0.296280
C 3.575580 -0.357430 -0.244620
C 1.799020 -1.621340 -1.401700
C 2.838280 -0.653850 -1.421470
C 3.759050 1.692160 -1.475230
C 2.971780 0.634750 -2.002970
C -0.358970 -2.215960 -2.132730
C 0.713600 -1.293600 -2.256660
C 2.657490 2.319510 -0.835310
C 2.308140 2.161850 0.532040
C 1.075360 2.138940 1.236500
C 1.465110 2.159620 -1.589730
C 0.192340 2.404600 -1.009560
C 0.056770 2.641300 0.384040
C -2.289790 2.688410 0.168510
C -1.186800 2.752060 1.060600
C -1.457890 2.189880 2.336100
C 0.592140 0.077190 -2.606900
C 1.651490 0.995520 -2.381320
C -1.585540 -1.736210 -2.663560
C -1.710940 -0.327760 -2.794020
C -0.707710 0.645330 -2.542810
C -0.867580 1.806520 -1.741240
C -2.104910 2.127820 -1.123020
C 3.233660 1.127660 0.832530
C -0.553540 1.210640 2.825720
C 0.764450 1.249050 2.298540
C 1.493080 0.038760 2.442690
C 2.671850 0.115210 1.654590
C 0.981910 -1.249140 2.753280
C 1.366800 -2.449050 2.098690
C -1.093660 -0.093770 2.978180
C -0.430450 -1.344340 2.865550
C -2.242580 0.065400 2.158980
C -2.449130 -0.873360 1.113720
C -3.130470 -0.379320 -0.030030
C -2.639040 1.428660 2.131510
C -1.729390 -2.080490 0.910600
C -0.772410 -2.351020 1.924230
C -3.151810 -0.967000 -1.322550
C -3.207310 1.909800 0.922380
C -3.485160 0.992370 -0.125250
C -2.976020 0.064750 -2.282230
C -3.141660 1.226730 -1.483010
C -1.714420 -2.597470 -0.411870
C -2.396710 -2.143540 -1.571540
