52 

C -0.659080 -3.034450 0.322010
C -1.859940 -2.542010 0.898230
C -2.739610 -2.141060 -0.141920
C 0.454430 -2.759330 1.159230
C 1.548770 0.463480 2.461550
C 2.453010 1.327800 1.789320
C 1.612830 -0.914560 2.124660
C 0.439260 -1.714080 2.120380
C -0.739210 -1.082490 2.598730
C -1.890820 -1.695580 2.038010
C -3.642680 -1.287520 0.545390
C -0.786340 0.290140 2.959470
C -3.055970 -0.923870 1.786340
C -1.805350 1.112170 2.409580
C -2.854180 0.478570 1.691980
C 0.352960 1.129270 2.840010
C -3.165450 0.860160 0.360080
C -3.530890 -0.261680 -0.430110
C -2.875440 -0.437830 -1.677430
C -2.276770 -1.697190 -1.408910
C -0.964070 -1.904470 -1.909280
C -2.576610 1.874960 -0.439860
C -2.349540 1.843200 -1.841240
C -2.251700 0.569150 -2.460640
C -0.928370 0.363240 -2.932750
C -0.304120 -0.876650 -2.633590
C -1.304390 2.227370 1.687200
C -1.624870 2.574740 0.348140
C 2.171080 2.547570 1.119170
C 0.806840 2.941470 1.131700
C 0.032910 2.330400 2.153490
C 1.045760 -3.077690 -1.139600
C -0.354960 -2.860570 -1.054130
C 2.651180 -2.477650 0.296550
C 1.428480 -3.195980 0.222740
C 1.102250 -0.888690 -2.437390
C 1.696780 -2.042480 -1.861390
C 2.863410 -2.091200 -1.053290
C 3.522070 -0.578130 0.583620
C 2.610880 -1.433380 1.257950
C 3.399560 0.807850 0.867290
C 3.249430 1.323610 -0.447200
C 2.434950 2.473870 -0.274160
C -0.291150 1.616260 -2.731870
C 1.360630 2.555680 -1.199150
C 1.031210 1.619000 -2.214330
C 1.715400 0.374760 -2.227140
C 2.873930 0.346290 -1.406510
C 3.437470 -0.814640 -0.813990
C 0.492760 3.139720 -0.238880
C -0.826820 3.003410 -0.745380
C -1.129900 2.539060 -2.052640
