52 

C -0.078240 -2.563850 -1.858680
C 1.205810 -2.027910 -1.574760
C 1.668760 -0.990300 -2.426600
C -0.981640 -1.684620 -2.512380
C -0.613810 -0.338220 -2.774060
C 0.760970 -0.051820 -2.984870
C 1.712360 -2.124540 -0.251660
C 2.873040 -1.393820 0.116330
C 3.219180 -1.027170 1.443820
C 0.902090 -2.516880 0.846540
C 1.152310 -1.929660 2.115050
C 2.320730 -1.233890 2.523870
C -0.796200 -3.299810 -0.879220
C -0.350940 -3.051780 0.446170
C -2.204060 -3.286470 -1.064000
C -0.918600 2.075760 -2.131270
C -1.388270 0.743700 -2.277920
C -2.167430 -2.108500 -1.856140
C 1.898820 0.043980 2.977180
C 0.196840 2.117940 1.768300
C -0.658630 2.961300 1.010990
C -1.436640 -2.567520 1.222830
C -1.198770 -1.576830 2.212020
C 0.071300 -1.292810 2.780110
C 0.484370 0.027170 3.101810
C -1.686330 0.888040 2.498110
C -0.295970 1.127800 2.658970
C 3.422280 0.370640 1.297860
C 3.580060 0.643520 -0.086740
C 2.314690 0.953280 1.968860
C 2.732900 1.505960 -0.831710
C 1.729890 2.200050 -0.104570
C 1.499120 1.872940 1.257860
C 3.473720 -0.547400 -0.852790
C 2.865160 -0.293800 -2.110470
C 2.592910 1.097890 -2.184600
C -0.396720 3.375560 -0.321760
C 0.758300 2.820620 -0.933640
C 0.485160 2.272980 -2.215010
C 1.299500 1.241470 -2.752830
C -2.440800 2.761110 -0.308940
C -1.424910 3.069260 -1.252040
C -2.497930 1.831570 1.814370
C -2.078060 2.952580 1.050540
C -2.063070 -0.450140 2.208690
C -2.986480 -1.385900 0.117280
C -2.418930 -2.684660 0.204110
C -2.968780 -0.377980 1.117390
C -2.834500 1.405250 -0.460950
C -2.453000 0.410250 -1.399500
C -2.726280 -0.971020 -1.215610
C -3.155300 1.006670 0.863670
