52 

C -1.802490 -2.622600 -0.000880
C -2.956750 -1.795430 -0.005500
C -4.025350 0.007210 -0.700480
C -3.257740 -1.080360 -1.194850
C -0.001720 -3.171360 -0.709440
C -1.149370 -2.541120 -1.259190
C -3.244940 1.082250 -1.202200
C -2.958200 1.793710 -0.007160
C -1.804170 2.621130 0.001050
C -2.300090 0.709980 -2.194750
C 0.003300 0.706820 -2.598100
C -1.115790 1.493250 -2.216260
C -1.149430 2.539160 -1.256380
C 2.297520 0.713790 -2.191140
C 1.115520 1.500530 -2.211340
C -1.124450 -1.489680 -2.213320
C -2.310950 -0.709980 -2.186240
C 1.152180 -2.549740 -1.255840
C 1.121100 -1.498790 -2.210360
C 0.002000 -0.713210 -2.593640
C 2.299250 -0.706220 -2.196330
C -3.250910 1.095910 1.194440
C -0.001430 3.171650 0.708940
C -1.149280 2.541670 1.258540
C 1.152160 2.546940 -1.252080
C -0.001770 3.173160 -0.711070
C 3.248650 1.084440 -1.204030
C -4.008760 -0.006970 0.719350
C -3.236690 -1.097850 1.199260
C -2.300650 -0.709730 2.194080
C 0.003150 -0.706560 2.597990
C -1.116120 -1.492640 2.216020
C -1.148450 -2.539190 1.256790
C 2.298530 -0.713820 2.190640
C 1.115950 -1.499670 2.211700
C -1.124210 1.490290 2.212730
C -2.310480 0.710230 2.186060
C 1.152540 2.549150 1.254200
C 1.120770 1.499270 2.209850
C 0.001900 0.713480 2.593370
C 2.298600 0.706180 2.198020
C 1.151900 -2.546430 1.252810
C -0.001200 -3.173130 0.710580
C 3.252180 -1.075210 1.202530
C 3.242170 1.087740 1.207800
C 4.019430 0.011060 0.704770
C 2.962560 1.780480 0.000180
C 1.816470 2.618850 0.000900
C 4.011370 -0.008980 -0.715060
C 1.813750 -2.620400 -0.001340
C 2.961790 -1.784720 0.007240
C 3.236660 -1.094470 -1.202880
