52 

C -2.307590 1.200780 -2.147680
C -2.842060 -0.053530 -1.750650
C -3.417780 -0.276960 -0.471950
C -0.992220 1.159370 -2.681180
C -2.306350 -1.365900 -1.835330
C -0.947500 -1.342750 -2.247140
C -0.405400 -0.131790 -2.753360
C 2.779250 0.910390 -1.368800
C 1.527130 1.104200 -2.010070
C 1.006770 -0.068930 -2.617960
C 1.665680 -1.280860 -2.281000
C -3.638430 -1.556660 0.102610
C -2.818970 -2.236170 -0.837170
C -2.223400 -2.960210 0.229360
C -0.864460 -2.847380 -0.166940
C 1.028020 -2.264270 -1.479260
C -0.388030 -2.339480 -1.404500
C -3.157450 -1.404240 1.429970
C -2.786380 -0.054190 1.666970
C -2.321090 -2.541600 1.582750
C -1.670280 0.408580 2.413110
C -1.419100 1.780940 2.148260
C -3.132670 0.702230 0.516160
C -1.940790 2.634330 1.140280
C -2.702230 1.997600 0.124790
C 0.035140 2.937720 0.891030
C -1.140890 3.348100 0.209080
C 3.171120 0.532770 1.843820
C 2.092990 1.451630 1.942980
C -1.129330 -1.962550 2.093540
C -0.785350 -0.684680 2.608560
C 1.405250 -1.201760 1.990370
C 0.562410 -0.237430 2.603800
C 0.820290 1.155020 2.498670
C -0.061180 2.193060 2.096320
C 2.748530 -0.818540 1.735010
C -2.473880 2.285760 -1.246790
C -1.324580 3.117050 -1.179930
C 2.110160 2.080370 0.669850
C 1.002280 2.560130 -0.077770
C 0.775240 2.154120 -1.419440
C -0.503500 2.314650 -2.015630
C 3.107100 1.397360 -0.075810
C 4.029160 0.667860 0.720450
C 4.357830 -0.418120 -0.133380
C -0.323440 -2.618840 1.125940
C 1.036340 -2.214140 1.065440
C 3.491840 -1.263220 0.609760
C 2.977910 -1.975990 -0.505700
C 1.647820 -2.373000 -0.206280
C 3.649240 -0.211690 -1.346510
C 2.996850 -1.389140 -1.798620
