52 

C -3.192830 -1.346960 -1.622650
C -3.351230 0.039150 -1.887450
C -0.664730 -2.955100 0.338830
C -1.862730 -2.739420 -0.392510
C -1.952560 -2.038500 -1.624260
C 0.203850 -1.803020 -1.823630
C -1.003100 -1.191230 -2.254530
C -1.119100 0.204520 -2.489050
C -2.314730 0.935550 -2.259760
C -2.502350 2.088400 -1.452170
C 2.427200 -1.349250 -1.583740
C 1.228780 -0.892230 -2.193220
C -0.131070 1.176840 -2.180960
C 0.265720 -2.658970 -0.692270
C -3.291890 1.960360 -0.278860
C -2.876130 2.169400 1.062750
C -1.670670 2.846700 0.739360
C 1.923770 2.190230 -0.744060
C 0.655430 2.429690 -0.151990
C -0.262110 2.207380 -1.212740
C -1.482360 2.675700 -0.657700
C 3.494650 0.895710 -1.724870
C 2.153950 1.343550 -1.860590
C 1.112650 0.513860 -2.354280
C 3.575960 -0.514520 -1.579830
C -3.606570 -0.338850 0.360800
C -2.962230 -0.177120 1.615850
C -3.695180 0.651300 -0.653180
C -2.561960 1.134830 1.983310
C -0.438720 -2.435700 1.641000
C -2.332160 -1.440290 1.770420
C -1.035160 -1.354440 2.342190
C -1.259400 1.178900 2.547110
C 2.532380 1.449090 1.469500
C 1.224610 1.341440 2.012340
C 0.804490 0.108930 2.578890
C -0.596360 -0.062550 2.735890
C 1.470780 -1.093900 2.224310
C 0.971200 -2.270420 1.605700
C 0.444050 2.241400 1.239540
C -0.867830 2.307240 1.779020
C 2.952160 1.917650 0.196450
C -2.687650 -2.229660 0.644840
C -3.568670 -1.606440 -0.278090
C 3.422900 0.343150 1.486000
C 2.777980 -0.903130 1.703450
C 4.068650 1.500180 -0.575280
C 4.310220 0.483610 0.386290
C 4.225670 -0.735630 -0.336690
C 1.300180 -2.660460 0.280530
C 3.315460 -1.433230 0.500730
C 2.426770 -2.103750 -0.380750
