52 

C -3.287960 0.578180 -1.340390
C -3.559690 1.293040 -0.143870
C -2.753460 2.406960 0.210610
C -1.652480 2.574590 -0.670480
C -1.315410 1.850150 -1.844440
C -2.172920 0.774710 -2.197460
C 0.658430 2.985200 -0.260430
C -0.661820 2.980260 0.262530
C 0.940510 2.497530 -1.563940
C 0.418210 0.520290 -2.963650
C 0.019200 1.716550 -2.310770
C 2.331020 2.209870 -1.551670
C -2.615030 0.895010 2.028510
C -3.398450 0.403270 0.951020
C -1.714770 0.014680 2.685100
C -0.945040 2.494130 1.566360
C -2.334840 2.203050 1.552120
C -0.419250 0.525430 2.963100
C -0.015040 1.719030 2.308550
C -1.579920 -1.334060 2.261780
C -2.150070 -1.779640 1.039920
C -3.044640 -0.866160 0.422030
C -1.561010 -2.733460 0.168290
C -0.292110 -1.818390 2.613110
C 0.249970 -2.806080 1.748740
C -0.372090 -3.374850 0.605950
C 1.725370 -0.490770 2.676400
C 0.370830 -0.649470 3.071980
C 1.652810 2.575000 0.666610
C 1.319210 1.847980 1.839900
C 2.171130 0.770430 2.199810
C -1.554470 -2.570960 -1.242390
C -2.264800 -1.493770 -1.835340
C -3.165840 -0.792730 -0.990890
C -0.249460 -2.808940 -1.749110
C -1.724620 -0.484850 -2.675990
C -0.371990 -0.654420 -3.073590
C 0.293200 -1.821560 -2.613450
C 0.370700 -3.375730 -0.604300
C 1.561560 -2.733830 -0.172670
C 3.041810 -0.872750 -0.414210
C 2.148000 -1.778520 -1.044430
C 1.578580 -1.328730 -2.265040
C 3.169410 -0.788790 0.997560
C 2.266140 -1.497360 1.833310
C 1.554170 -2.572160 1.238080
C 2.756150 2.403550 -0.210700
C 3.562930 1.288880 0.140070
C 3.286840 0.583940 1.341420
C 1.717560 0.021640 -2.681710
C 3.396700 0.393670 -0.949610
C 2.616710 0.900930 -2.022320
