52 

C -3.729930 0.074610 0.054170
C -3.419710 -0.721100 -1.080330
C -3.031050 -1.911570 -0.410860
C 0.301590 -2.156020 1.924530
C -0.848400 -2.459810 1.148760
C -2.488720 1.930130 -1.117760
C -2.143980 1.093980 -2.212540
C -3.054140 1.323370 0.034910
C -2.501950 -0.272440 -2.066690
C -1.584560 -1.349080 -2.192080
C -0.284000 -1.026030 -2.661900
C 0.576160 -2.076500 -2.245710
C -0.782290 -2.698490 -0.249530
C -1.819310 -2.210810 -1.088100
C 0.395530 -2.798580 -1.036390
C -1.504080 2.931500 -0.907590
C -0.612790 2.693620 -1.987170
C 2.212450 -0.419430 -2.330370
C 1.358590 0.713370 -2.395740
C 0.046350 0.348400 -2.797360
C -0.835470 1.449410 -2.634360
C 1.970990 -1.818630 -2.312000
C -2.499390 1.351050 1.341800
C -2.883280 0.151800 1.998230
C 0.401560 3.165790 0.123920
C -0.961800 2.884130 0.403970
C -1.263450 2.032330 1.499380
C 1.203930 2.755530 1.221370
C 0.896220 1.866490 2.285050
C -0.413540 1.328590 2.393190
C 2.484870 2.329720 0.780550
C 1.556310 1.876310 -1.605180
C 0.589420 2.853190 -1.248460
C 2.524850 1.882960 -0.566770
C -3.841390 -0.619100 1.288180
C -1.957280 -1.864680 1.806540
C -3.126520 -1.812300 1.002450
C -0.619850 -0.017270 2.796400
C -1.861880 -0.662120 2.555670
C 0.392930 -1.011980 2.760780
C 2.939410 1.349360 1.701800
C 1.901780 0.902950 2.562320
C 1.713760 -0.501530 2.654550
C 3.526190 0.378960 0.847140
C 3.274720 -0.369790 -1.389330
C 3.373630 0.745670 -0.516190
C 2.513700 -2.451550 -1.162520
C 3.357510 -1.499020 -0.532360
C 2.312460 -1.450820 1.784600
C 1.477660 -2.424730 1.175450
C 1.537510 -2.801340 -0.192390
C 3.228710 -1.008520 0.794010
