38
0 1
C       -2.365116   -2.102008    0.117807 
C       -2.490954   -1.386022   -1.089536 
C       -3.116640   -0.114924   -0.797141 
C       -2.534360   -1.159772    1.268120 
C       -3.143975    0.008684    0.756851 
C       -1.281830   -1.096224    1.956449 
C       -1.027018   -2.672067    0.201243 
C       -0.416891   -2.183753    1.385523 
C       -1.195475   -1.436341   -1.804962 
C       -0.368319   -2.429823   -1.080034 
C       -0.595376   -0.245676   -2.276326 
C       -2.578936    1.041190   -1.304185 
C       -1.256617    1.035032   -1.983498 
C       -2.611220    1.262193    1.079710 
C       -2.484879    2.040609   -0.190601 
C       -0.684831    0.178770    2.258110 
C       -1.345641    1.360302    1.778458 
C        0.764816    0.244925    2.354347 
C        0.993296   -2.083859    1.390367 
C        1.605975   -0.927066    2.042690 
C        1.020078   -2.339162   -1.078832 
C        1.715027   -2.340246    0.199593 
C        0.854203   -0.219496   -2.345617 
C        1.628877   -1.299092   -1.878091 
C        1.611325    1.004082   -2.013072 
C       -0.513142    2.112849   -1.435744 
C       -1.220929    2.611043   -0.231022 
C       -0.545630    2.388686    1.068184 
C        0.909999    2.116067   -1.373328 
C        1.480299    1.368956    1.907214 
C        0.829715    2.375094    1.094318 
C        1.575152    2.424165   -0.174791 
C        2.782072   -0.534181    1.334650 
C        2.866185   -1.348863    0.124636 
C        2.839149   -0.756096   -1.122723 
C        2.786527    0.687341   -1.268845 
C        2.742613    0.907033    1.188438 
C        2.772473    1.507649   -0.058358 
