38
0 1
C        3.125677   -0.317427   -0.972312 
C        3.194075   -0.795486    0.323206 
C        2.733104    0.277379    1.260750 
C        2.664745    1.096468   -0.941241 
C        2.515947    1.480955    0.466473 
C        1.550475    1.193152   -1.803195 
C        2.081742   -1.096835   -1.718164 
C        1.124791   -0.194321   -2.220742 
C        2.250263   -1.943794    0.470198 
C        1.653900   -2.181492   -0.844177 
C        1.677219   -0.263219    2.035925 
C        1.406423   -1.661034    1.572371 
C        0.564976    0.561480    2.364840 
C        1.434673    2.308058    0.807994 
C        0.553324    1.885123    1.884286 
C        0.554124    2.158466   -1.511446 
C        0.578608    2.806796   -0.248552 
C       -0.823652    1.841292   -1.862297 
C       -0.280834   -0.556593   -2.267839 
C       -1.243127    0.551583   -2.193127 
C        0.314267   -2.551522   -0.889947 
C       -0.648606   -1.814566   -1.736613 
C        0.071215   -2.135067    1.544461 
C       -0.350309   -2.825002    0.375985 
C       -0.831401    0.036530    2.339180 
C       -1.063543   -1.293709    2.032158 
C       -0.857099    2.244844    1.525359 
C       -0.832978    2.870708    0.271131 
C       -1.703663    2.392560   -0.751366 
C       -1.703766    1.103728    1.791819 
C       -2.531671    0.330648   -1.492092 
C       -2.655961    1.431106   -0.448242 
C       -2.706208    0.774450    0.849740 
C       -1.972274   -2.004939   -1.094107 
C       -1.778616   -2.587689    0.173224 
C       -2.237944   -1.629378    1.223390 
C       -2.852827   -0.861376   -0.916642 
C       -2.975067   -0.631879    0.599612 
