38
0 1
C        3.443092   -0.380873   -0.008721 
C        3.128219    0.368343   -1.122782 
C        2.465882    1.634626   -0.705204 
C        2.938642    0.351967    1.209111 
C        2.351892    1.616465    0.746401 
C        2.124266   -0.527769    1.909117 
C        2.686656   -1.680202   -0.080185 
C        1.998924   -1.817103    1.124406 
C        2.126286   -0.371747   -1.963015 
C        1.905695   -1.662846   -1.325058 
C        1.301744    1.781983   -1.502840 
C        1.038397    0.485946   -2.227386 
C        0.208326    2.475156   -0.955083 
C        1.129066    2.029777    1.310722 
C        0.184685    2.684771    0.460560 
C        0.791033   -0.177965    2.367787 
C        0.336303    1.122125    2.184769 
C        0.622080   -2.231894    1.176095 
C       -0.119634   -1.306777    2.084533 
C        0.595997   -2.130133   -1.291031 
C        0.016134   -2.621489   -0.018432 
C       -0.306916   -0.037009   -2.311751 
C       -0.480562   -1.406712   -1.985541 
C       -1.132623    2.101460   -1.373707 
C       -1.408951    0.885888   -2.016149 
C       -1.198631    2.405511    0.949024 
C       -1.103649    1.365804    1.944663 
C       -2.037698    2.249047   -0.169286 
C       -1.472360   -1.094047    1.933458 
C       -2.010271    0.288604    1.884916 
C       -1.418006   -2.504739   -0.138544 
C       -1.734948   -1.863829   -1.379278 
C       -2.210205   -1.878953    0.911429 
C       -2.675128    0.368614   -1.458360 
C       -2.977813    1.202701   -0.202150 
C       -3.065826    0.304472    0.878526 
C       -2.854197   -0.962490   -1.153407 
C       -3.185900   -1.066685    0.312394 
