40
0 1
C        2.996355    0.667390    0.361905 
C        2.550315    1.634947   -0.503669 
C        2.213575    0.980799   -1.829400 
C        2.996355   -0.667390   -0.361905 
C        2.371155   -0.457908   -1.673440 
C        2.550315   -1.634947    0.503669 
C        2.371155    0.457908    1.673440 
C        2.213575   -0.980799    1.829400 
C        1.313431    1.281557    2.048764 
C        1.429787    2.508666   -0.150349 
C        0.871353    2.386915    1.144840 
C        1.023366    1.524711   -2.275701 
C        0.534672    2.531887   -1.269961 
C       -0.098266    0.695787   -2.652713 
C        1.313431   -1.281557   -2.048764 
C        0.098266   -0.695787   -2.652713 
C        1.429787   -2.508666    0.150349 
C        0.871353   -2.386915   -1.144840 
C        1.023366   -1.524711    2.275701 
C        0.534672   -2.531887    1.269961 
C        0.098266    0.695787    2.652713 
C       -0.098266   -0.695787    2.652713 
C       -0.534672    2.531887    1.269961 
C       -1.023366    1.524711    2.275701 
C       -0.871353    2.386915   -1.144840 
C       -1.313431    1.281557   -2.048764 
C       -1.429787    2.508666    0.150349 
C       -2.371155    0.457908   -1.673440 
C       -1.023366   -1.524711   -2.275701 
C       -0.534672   -2.531887   -1.269961 
C       -2.213575   -0.980799   -1.829400 
C       -0.871353   -2.386915    1.144840 
C       -1.313431   -1.281557    2.048764 
C       -1.429787   -2.508666   -0.150349 
C       -2.550315   -1.634947   -0.503669 
C       -2.213575    0.980799    1.829400 
C       -2.550315    1.634947    0.503669 
C       -2.996355    0.667390   -0.361905 
C       -2.371155   -0.457908    1.673440 
C       -2.996355   -0.667390    0.361905 
