40
0 1
C       -3.113898    1.216008    0.242492 
C       -3.052289   -0.061792    1.016655 
C       -3.035557   -1.113930    0.112829 
C       -2.845675    0.935305   -1.116958 
C       -2.917848   -0.506291   -1.290834 
C       -1.617913    1.646502   -1.520028 
C       -2.064829    2.094219    0.753954 
C       -1.262600    2.507257   -0.392549 
C       -1.979503    0.088974    2.007563 
C       -1.429056    1.464647    1.856910 
C       -1.096455   -0.957345    2.204631 
C       -2.027503   -2.158994    0.213166 
C       -1.157503   -2.155229    1.328618 
C       -1.896504   -1.149960   -1.932464 
C       -1.419868   -2.305884   -1.084915 
C       -0.579584    0.966513   -2.236914 
C       -0.695929   -0.467628   -2.430572 
C        0.763979    1.475274   -2.095339 
C        0.075817    2.852423   -0.153098 
C        1.050816    2.485061   -1.122680 
C       -0.036614    1.698229    2.051677 
C        0.633961    2.553949    1.163952 
C        0.335420   -0.695103    2.508313 
C        0.873538    0.578060    2.404262 
C        0.172806   -2.629685    1.135348 
C        1.106686   -1.801689    1.974655 
C       -0.032468   -2.449066   -1.278630 
C        0.408941   -1.347788   -2.194502 
C        0.765130   -2.780755   -0.152207 
C        1.891948    0.565658   -2.132068 
C        1.723829   -0.831047   -2.079895 
C        2.326401    2.106797   -0.395814 
C        2.032302    2.041493    0.970457 
C        2.167666    0.807473    1.715607 
C        2.870971    0.969499   -1.048395 
C        2.290774   -1.604974    1.291172 
C        2.127511   -2.242314   -0.079145 
C        2.600601   -1.360555   -1.015103 
C        2.844207   -0.270499    1.104294 
C        3.198291   -0.162812   -0.304446 
