40
0 1
C       -3.415469    0.442673   -1.195331 
C       -3.653283   -0.792443   -0.415417 
C       -3.466411   -0.497093    0.938876 
C       -3.049374    1.510726   -0.196867 
C       -3.038732    0.935096    1.082671 
C       -1.818378    2.120804   -0.669634 
C       -2.263987    0.238183   -1.976906 
C       -1.293056    1.328483   -1.783820 
C       -2.578125   -1.756059   -0.813180 
C       -1.742805   -1.132171   -1.775929 
C       -2.361080   -1.314476    1.499103 
C       -1.940096   -2.216452    0.426651 
C       -1.813607    0.931330    1.880402 
C       -1.390167   -0.482544    2.102861 
C       -0.890190    2.554260    0.291311 
C       -0.822545    1.837284    1.588307 
C        0.436081    2.741934   -0.148980 
C        0.090712    1.124961   -1.964737 
C        0.939020    2.094049   -1.317378 
C       -0.319136   -1.346723   -1.799919 
C        0.622554   -0.261291   -2.125573 
C       -0.606058   -2.506670    0.367750 
C        0.131782   -2.357633   -0.904933 
C        0.019625   -0.832387    2.089381 
C        0.319665   -2.041654    1.414325 
C        0.607895    1.550239    1.860534 
C        1.359302    2.387834    0.983510 
C        1.068104    0.212026    2.126076 
C        2.341542    1.801688   -1.077050 
C        2.581766    1.982132    0.434515 
C        2.007056   -0.489534   -1.933390 
C        2.891716    0.605632   -1.464689 
C        1.512567   -2.481590   -0.594859 
C        1.647056   -2.297051    0.919614 
C        2.460121   -1.683183   -1.215640 
C        2.414857   -0.109181    1.724706 
C        3.190486    0.819756    0.916521 
C        3.693716    0.078463   -0.297790 
C        2.698322   -1.445560    1.167962 
C        3.428553   -1.253858   -0.143054 
