40
0 1
C       -0.156292   -3.081098    0.726254 
C        0.400535   -3.149830   -0.540688 
C        1.685904   -2.350386   -0.525011 
C        0.868069   -2.453016    1.631812 
C        1.865806   -1.836059    0.846518 
C        0.156292   -1.710058    2.620034 
C       -1.428990   -2.383974    0.970943 
C       -1.288143   -1.596333    2.146570 
C       -2.084693   -1.786017   -0.136432 
C       -0.355058   -2.702209   -1.668874 
C       -1.592290   -2.098768   -1.474977 
C        1.726691   -1.526417   -1.639345 
C        0.513190   -1.735312   -2.457403 
C        2.175983   -0.165318   -1.479773 
C        2.218976   -0.432206    1.051012 
C        2.433489    0.376992   -0.102720 
C        0.600280   -0.460595    2.966990 
C        1.662212    0.222204    2.211223 
C       -1.662212   -0.222204    2.211223 
C       -0.600280    0.460595    2.966990 
C       -2.433489   -0.376992   -0.102720 
C       -2.218976    0.432206    1.051012 
C       -1.618469   -0.830122   -2.267392 
C       -0.272758   -0.667579   -2.878742 
C       -2.175983    0.165318   -1.479773 
C        1.618469    0.830122   -2.267392 
C        0.272758    0.667579   -2.878742 
C        2.084693    1.786017   -0.136432 
C        1.592290    2.098768   -1.474977 
C        1.288143    1.596333    2.146570 
C       -0.156292    1.710058    2.620034 
C        1.428990    2.383974    0.970943 
C       -1.865806    1.836059    0.846518 
C       -0.868069    2.453016    1.631812 
C        0.156292    3.081098    0.726254 
C       -1.726691    1.526417   -1.639345 
C       -0.513190    1.735312   -2.457403 
C        0.355058    2.702209   -1.668874 
C       -1.685904    2.350386   -0.525011 
C       -0.400535    3.149830   -0.540688 
