40
0 1
C       -2.767624   -2.026789    0.235590 
C       -3.349357   -0.864077   -0.452989 
C       -3.185535    0.315793    0.457338 
C       -2.178763   -1.568883    1.432081 
C       -2.473093   -0.129082    1.614583 
C       -0.774331   -2.024635    1.513208 
C       -1.647577   -2.505467   -0.620271 
C       -0.508399   -2.713124    0.280059 
C       -2.563280   -0.601059   -1.587841 
C       -1.473917   -1.611514   -1.690827 
C       -2.656711    1.411161   -0.324821 
C       -2.206927    0.825028   -1.620963 
C       -1.834473    2.345392    0.320579 
C       -1.449974    0.685962    2.140510 
C       -1.313074    1.993891    1.625091 
C        0.252945   -1.223606    2.118483 
C       -0.078734    0.144926    2.425335 
C        1.606175   -1.509182    1.741482 
C        0.776438   -2.679028   -0.267829 
C        1.846463   -2.385098    0.598624 
C       -0.139366   -1.191916   -2.105912 
C        0.985563   -1.937923   -1.568087 
C       -0.987863    1.181775   -2.153665 
C        0.073280    0.161314   -2.422976 
C       -0.723897    2.930714   -0.424421 
C       -0.328130    2.361995   -1.625037 
C        0.142182    2.354911    1.661533 
C        0.863327    1.193571    2.178426 
C        0.497022    2.954022    0.472559 
C        2.578899   -0.430843    1.646139 
C        2.145933    0.907229    1.641197 
C        2.925436   -1.782814   -0.233728 
C        2.276531   -1.388861   -1.533627 
C        3.384193   -0.648666    0.398252 
C        1.373666    0.797376   -2.159857 
C        1.141246    2.091170   -1.587426 
C        1.634055    2.436921   -0.296989 
C        2.538243    1.541617    0.323794 
C        2.461117    0.050379   -1.672301 
C        3.138311    0.537420   -0.475297 
