92 

C -1.70301 .92865 -3.85629
C -1.83593 2.09404 -3.05019
C -3.02365 2.20572 -2.29085
C -.65050 2.81687 -2.64352
C -.74615 3.70996 -1.51288
C .45432 4.17630 -.90605
C -.44998 .46835 -4.25277
C .75028 1.11959 -3.85013
C .65486 2.33579 -3.07736
C 3.02772 2.04583 -2.43238
C 1.84045 2.81352 -2.39956
C 1.70750 3.73447 -1.32274
C 3.07155 .79290 -3.10880
C 1.95462 .30771 -3.80569
C 1.84516 -1.11877 -3.92297
C -1.95091 3.74926 -.70137
C -3.06790 3.00675 -1.11362
C .54394 4.41920 .53366
C -.54765 4.25039 1.31780
C -1.84174 4.01168 .70564
C 1.83846 3.95285 .99518
C 1.94834 3.13796 2.17224
C 3.06648 2.29375 2.24526
C 3.91982 1.96724 -1.30095
C 3.65022 2.70551 -.10739
C 2.59222 3.65588 -.14864
C 3.94174 2.10114 1.12956
C -2.59470 3.27164 1.62790
C -3.65130 2.41972 1.20126
C -3.94250 2.37354 -.17462
C -3.91950 1.25736 1.98835
C -1.70977 2.86436 2.73128
C -.65493 .87254 3.76163
C -1.84124 1.58396 3.33730
C -3.02768 .86824 3.05271
C .45276 -1.31007 4.07199
C -.74848 -.55348 3.97026
C .74367 2.76840 2.89644
C -.45705 3.44004 2.53225
C 3.02395 1.08109 2.99241
C 1.83633 .66682 3.63980
C .64950 1.49066 3.56343
C 1.70548 -.72599 3.89891
C -4.45085 .07968 1.40016
C -4.67294 -.00722 -.00661
C -4.44992 1.16784 -.78498
C -4.44849 -1.26826 -.63430
C -3.94259 -1.05051 2.13992
C -2.59149 -3.05812 2.01864
C -3.64890 -2.26484 1.49263
C -3.91558 -2.36580 .09236
C -1.95197 -1.27803 3.59713
C -3.06970 -.55202 3.15843
C -1.84014 -2.62759 3.12154
C -3.93871 -1.34241 -1.98225
C -3.64667 -.17405 -2.70987
C -3.91633 1.08863 -2.09769
C -2.58816 -.23094 -3.65877
C -3.06364 -2.47223 -2.05899
C -1.94532 -2.48694 -2.90579
C -1.83473 -1.39978 -3.83671
C .55120 -1.75182 -4.09853
C -.54000 -.98878 -4.34711
C -1.70456 -3.80849 1.11518
C -1.83470 -3.69322 -.29689
C -3.02178 -3.09114 -.77586
C -.64772 -3.70250 -1.12398
C -.74105 -3.17007 -2.46343
C .45994 -2.87725 -3.16828
C -.45217 -3.92146 1.71471
C .74901 -3.89851 .95203
C .65616 -3.83733 -.48822
C 3.02911 -3.13319 -.55513
C 1.84292 -3.48906 -1.23888
C 1.71236 -3.01709 -2.57473
C 1.84046 -2.84243 2.92928
C .54516 -2.67829 3.56274
C -.54495 -3.27489 3.02364
C 3.07031 -3.09263 .86867
C 1.95233 -3.45391 1.63521
C 3.91772 .14246 2.35982
C 3.94360 -2.02898 1.26040
C 3.65024 -1.26065 2.40222
C 2.59223 -1.70196 3.24482
C 4.45264 .65312 -1.24529
C 4.45264 -1.40927 .06049
C 4.67518 -.00116 .00328
C 4.45090 .75231 1.19372
C 2.59749 -1.96108 -3.09230
C 3.92132 -2.11467 -1.05115
C 3.65387 -1.45018 -2.28802
C 3.94548 -.07687 -2.38254
