92 

C -3.62673 .35334 2.35850
C -2.55256 .07382 3.30654
C -4.22588 -.72913 1.68731
C -2.19527 -1.25550 3.53445
C -.19491 .71166 3.98996
C -1.55627 1.10138 3.62870
C -1.76722 2.38968 3.12872
C .82772 1.65176 3.86509
C .59266 2.94171 3.28511
C -.68161 3.28451 2.88581
C .19072 -.69858 3.99380
C 1.55265 -1.08992 3.63645
C -.83186 -1.63916 3.87219
C 1.76437 -2.38063 3.14329
C -4.66520 -.61278 .31038
C -2.76904 2.65189 2.10808
C -3.69318 1.66302 1.71437
C -4.22654 1.77816 .41237
C -4.66517 .60303 -.31372
C -2.22585 3.56639 1.17778
C -2.56794 3.50878 -.18952
C -3.65968 2.68311 -.53382
C -.16487 4.09843 -.72795
C -1.52805 3.79672 -1.17896
C .88270 3.91125 -1.62879
C .16360 4.10182 .71230
C 1.52707 3.80363 1.16469
C -.88374 3.91764 1.61396
C 1.71083 3.29818 2.46347
C -2.75668 2.32009 -2.76910
C -4.22359 .71961 -1.68981
C -3.73308 2.05310 -1.84126
C -.59289 2.92605 -3.29528
C -1.71143 3.28505 -2.47536
C .68103 3.27198 -2.89761
C -2.19027 1.24783 -3.53335
C -2.54699 -.08196 -3.30613
C -3.62264 -.36254 -2.35997
C -3.68911 -1.67219 -1.71590
C -4.22457 -1.78762 -.41478
C -2.76350 -2.66028 -2.10793
C -.18794 -.71752 -3.98580
C -1.54947 -1.10862 -3.62661
C -1.76023 -2.39710 -3.12687
C .83519 -1.65674 -3.85940
C .60029 -2.94689 -3.27964
C -.67423 -3.29091 -2.88221
C 1.55759 1.08594 -3.62981
C .19660 .69316 -3.98906
C -.82680 1.63289 -3.86898
C 1.76745 2.37687 -3.13626
C -2.22101 -3.57422 -1.17668
C -2.56548 -3.51680 .19002
C -3.65852 -2.69211 .53244
C -3.73460 -2.06220 1.83977
C -2.75962 -2.32817 2.76927
C -.16267 -4.10400 .73236
C -1.52694 -3.80365 1.18118
C -1.71294 -3.29214 2.47726
C .88329 -3.91575 1.63475
C .67900 -3.27657 2.90313
C -.59601 -2.93186 3.29881
C -.87784 -3.92419 -1.61066
C 1.53212 -3.80779 -1.15774
C .16827 -4.10717 -.70734
C 3.66266 -2.69116 -.51459
C 2.57060 -3.51521 -.16808
C 2.22623 -3.56643 1.19892
C 1.71748 -3.30222 -2.45628
C 4.66778 -.60997 -.30319
C 4.22823 -1.78159 .42802
C 3.69277 -1.66040 1.72845
C 2.76797 -2.64750 2.12551
C 4.66699 .60899 .31462
C 2.76331 -2.33870 -2.75306
C 4.22845 -.73321 -1.67936
C 3.73822 -2.06742 -1.82498
C 2.76914 2.64481 -2.11697
C 4.22744 1.78019 -.41721
C 3.69416 1.65847 -1.71851
C 3.62877 .34566 -2.35601
C 2.55469 .06069 -3.30244
C 2.19824 -1.27010 -3.52344
C 2.75710 2.33570 2.76172
C 3.73368 2.06551 1.83509
C 3.65977 2.68919 .52469
C 2.56740 3.51215 .17657
C 2.22519 3.56311 -1.19097
C 3.62535 -.34767 2.36577
C 2.54951 -.06384 3.31060
C 2.19168 1.26654 3.53120
C 4.22547 .73172 1.69016
