92 

C -1.47568 3.33751 2.29498
C -2.26772 2.23176 2.61625
C -1.70649 1.19951 3.46917
C -.13380 3.46616 2.77163
C .38849 2.49434 3.60132
C -.40081 1.35431 3.93791
C 3.64165 1.78554 1.97073
C 1.76067 2.07564 3.43477
C 2.54844 2.57961 2.38058
C 1.96111 3.51572 1.42314
C 2.39588 3.46415 .02667
C .68536 4.02630 1.71023
C 1.53834 3.95447 -.95519
C -2.24063 -.15356 3.41934
C -3.48460 -.33377 2.80318
C -3.89962 -1.60212 2.29598
C -1.34034 -1.28462 3.52800
C -1.75092 -2.51020 2.99421
C -3.02079 -2.67808 2.36880
C .49879 .21945 4.04081
C .09534 -1.06045 3.69578
C 2.42860 -1.52554 2.90889
C 1.07880 -1.96631 3.09211
C .59650 -3.07402 2.30520
C -.79426 -3.34967 2.29527
C 3.26547 -2.24231 2.00660
C 1.83017 .68861 3.77410
C 3.83425 .47808 2.46919
C 2.79883 -.15369 3.21909
C -4.47805 -2.18780 -.01584
C -3.49273 -3.25029 .03892
C -4.68769 -1.37994 1.09588
C -2.82760 -3.52895 1.21233
C -1.42570 -3.90258 1.17145
C -2.74252 -3.23332 -1.21144
C -1.37487 -3.59253 -1.27648
C -.70890 -4.01279 -.05712
C 2.74340 -3.24531 1.17001
C 1.37552 -3.60459 1.23151
C .70915 -4.01354 .00844
C 1.42569 -3.89253 -1.21944
C -4.81911 .61005 -.35640
C -4.61338 -.24428 -1.50967
C -4.80668 .05790 .92071
C -4.37827 -1.58934 -1.33439
C -1.82906 .72227 -3.78171
C -3.83311 .50099 -2.47828
C -2.79806 -.12447 -3.23385
C -3.26479 -2.22307 -2.03889
C .79453 -3.32926 -2.33850
C -.59601 -3.05289 -2.34570
C -1.07844 -1.93848 -3.12275
C -2.42805 -1.49907 -2.93516
C -.09462 -1.02779 -3.71866
C -.49748 .25487 -4.05236
C -3.36932 1.90624 1.71807
C -3.42990 2.51178 .40130
C -4.05131 .70321 1.94466
C -4.14683 1.84309 -.60169
C -1.95801 3.52857 -1.40640
C -2.39272 3.46499 -.01042
C -1.53487 3.94657 .97549
C -.68200 4.04105 -1.68917
C .21781 4.43262 -.64221
C -.21424 4.42701 .66655
C -3.63953 1.80391 -1.96852
C -1.75849 2.10591 -3.43049
C -2.54598 2.60095 -2.37183
C .40301 1.38818 -3.93962
C -.38569 2.52518 -3.59328
C .13714 3.48949 -2.75533
C 1.70916 1.22921 -3.47252
C 2.27102 2.25383 -2.61079
C 1.47921 3.35663 -2.27987
C 3.02113 -2.65781 -2.40572
C 1.75163 -2.48389 -3.03011
C 1.34153 -1.25368 -3.55300
C 3.90093 -1.58283 -2.32352
C 3.48681 -.30984 -2.82012
C 2.24295 -.12405 -3.43459
C 4.47848 -2.18890 -.01675
C 3.49321 -3.25079 -.08106
C 2.82781 -3.51871 -1.25691
C 4.68880 -1.37150 -1.12137
C 4.82090 .60538 .34832
C 4.61435 -.25892 1.49407
C 4.37884 -1.60228 1.30707
C 4.80866 .06459 -.93369
C 3.37242 1.92032 -1.71526
C 3.43286 2.51413 -.39308
C 4.14916 1.83642 .60428
C 4.05398 .71919 -1.95232
