92 

C -2.86857 3.41286 -.05862
C -2.89859 2.91089 -1.39492
C -3.84870 1.89357 -1.67284
C -3.63774 .98494 -2.72813
C -2.55359 1.15276 -3.57929
C -1.72230 4.00029 .45436
C -.49158 4.04163 -.29171
C -.47196 3.53309 -1.62271
C -1.70868 3.01579 -2.19832
C -1.62012 2.19610 -3.34555
C 1.97604 3.36925 -1.51562
C .81157 3.14916 -2.23238
C 1.95709 3.85040 -.16551
C .73844 4.14087 .48007
C .70133 3.95614 1.88714
C .52084 -.43935 -4.42694
C -1.83962 -.01286 -4.06699
C -.52974 .44333 -4.42654
C .86346 2.15946 -3.32451
C -.34215 1.76443 -3.88407
C 1.83124 .01701 -4.06984
C 2.02392 1.27581 -3.47910
C .33423 -1.76003 -3.88284
C -.87066 -2.15463 -3.32092
C -2.03131 -1.27112 -3.47460
C -3.18658 -1.44196 -2.59231
C -3.99415 -.34426 -2.27986
C -3.16615 -2.52929 -1.66061
C 1.61287 -2.19114 -3.34570
C 1.70341 -3.01021 -2.19796
C .46751 -3.52687 -1.61988
C -.81720 -3.14304 -2.22774
C -1.98067 -3.36227 -1.50899
C 1.72196 -3.99231 .45512
C .48964 -4.03433 -.28861
C 3.63163 -.97973 -2.73289
C 2.54594 -1.14857 -3.58201
C 3.84466 -1.88744 -1.67719
C 2.89506 -2.90487 -1.39701
C 2.86784 -3.40559 -.06037
C 3.16154 2.53616 -1.66835
C 3.18054 1.44739 -2.59880
C 3.98869 .34999 -2.28668
C -3.80896 -2.45539 -.42275
C -4.46996 -1.24443 -.00487
C -4.58913 -.20793 -.96833
C -4.38147 -.87539 1.35547
C -3.05484 -3.26879 .52922
C -1.72114 -3.20901 2.54483
C -2.90909 -2.85761 1.87470
C -3.56677 -1.64831 2.28943
C -.73922 -4.13261 .48511
C -1.95905 -3.84247 -.15856
C -.69924 -3.94631 1.89190
C -4.28989 .49346 1.73251
C -4.31985 1.52296 .76062
C -4.51209 1.15662 -.59220
C -3.56897 2.70667 1.03016
C -3.38903 .57854 2.84748
C -2.56414 1.67875 3.04084
C -2.79426 2.81586 2.18918
C -.54441 3.63763 2.56056
C -1.71989 3.73651 1.88864
C -1.09291 -2.27275 3.47165
C -1.61173 -.99382 3.66479
C -2.94018 -.75928 3.16702
C -.70517 .12479 3.84967
C -1.22037 1.47447 3.61273
C -.30616 2.51398 3.46066
C .31109 -2.50272 3.46235
C 1.22613 -1.46295 3.61194
C .71189 -.11274 3.84856
C 2.94534 .77089 3.16127
C 1.61782 1.00598 3.66116
C 1.09780 2.28447 3.46779
C 2.79695 -2.80589 2.18677
C 1.72187 -3.72677 1.88899
C .54786 -3.62690 2.56260
C 3.39320 -.56727 2.84215
C 2.56901 -1.66765 3.03775
C 4.50973 -1.14891 -.59857
C 4.29224 -.48309 1.72545
C 4.32036 -1.51404 .75477
C 3.57013 -2.69783 1.02641
C 3.80662 2.46320 -.43163
C 4.38353 .88540 1.34689
C 4.46899 1.25281 -.01398
C 4.58619 .21505 -.97630
C 1.72415 3.21955 2.53895
C 3.57043 1.65919 2.28168
C 2.91122 2.86776 1.86706
C 3.05406 3.27733 .52099
