92 

C 3.05059 1.81181 -2.51636
C 3.82918 .76882 -1.96373
C 4.46689 1.03227 -.73228
C 2.85132 3.03948 -1.82953
C 3.26059 3.18519 -.47433
C 4.12386 2.19066 .03494
C 3.51318 -.60443 -2.33506
C 4.01596 -1.63377 -1.52008
C 3.36557 -2.90929 -1.42933
C 2.31709 -.87065 -3.13198
C 1.79040 -2.16578 -3.12211
C 2.31029 -3.19544 -2.26804
C 1.87057 1.52712 -3.29289
C 1.41919 .21252 -3.49592
C -.91090 1.11016 -3.49737
C -.00510 -.01176 -3.63563
C -.52339 -1.35667 -3.48914
C .38904 -2.40346 -3.27879
C -2.27426 .84433 -3.28760
C .82764 4.36551 -1.45139
C 1.59994 3.59121 -2.28977
C .96475 2.62244 -3.13726
C -.60262 4.29049 -1.53637
C -1.24585 3.33696 -2.34491
C -.42036 2.43086 -3.14108
C 2.32756 3.46973 1.80946
C 2.37306 3.89512 .45217
C 1.20861 4.51137 -.05576
C -.16836 -4.66836 .06085
C 1.12526 -4.42058 -.44780
C 1.20596 -4.00065 -1.80519
C .04426 -3.56330 -2.49628
C -1.24911 -3.71332 -1.94480
C -1.34178 -4.39052 -.70972
C -3.42932 -3.25503 -.18162
C -2.40656 -4.06778 .21642
C -2.76932 -.48729 -3.12376
C -1.91101 -1.59087 -3.12591
C -2.27987 -2.75537 -2.32307
C -3.42409 -2.67182 -1.51045
C 2.18228 -4.00214 .47828
C 3.29904 -3.30466 -.03162
C -.48920 -4.41711 1.45671
C .47654 -3.90338 2.29471
C 1.83441 -3.74286 1.83371
C -1.83444 -3.92582 1.54236
C .15399 -2.79101 3.14253
C -1.11394 -2.20156 3.14694
C -2.16931 -2.82552 2.35106
C -3.47670 -.74032 2.51876
C -3.33523 -2.03725 1.97323
C -3.97895 -2.28514 .74177
C 2.38547 -2.62778 2.52032
C 3.43558 -1.85919 1.96711
C 3.96720 -2.29797 .73528
C 4.52884 -1.34110 -.19453
C 4.72321 -.04740 .19731
C 2.47194 .15157 3.13591
C 3.53688 -.45380 2.33842
C 4.31933 .38270 1.52309
C 2.34854 1.54415 3.12614
C 3.14730 2.37595 2.27168
C 4.07194 1.79291 1.43256
C 1.34137 -2.00956 3.29753
C -2.42065 -.14103 3.29421
C -1.19514 -.79504 3.50332
C .00007 .01174 3.64112
C 1.29584 -.62048 3.50060
C -.10076 1.44946 3.49488
C 1.07865 2.18246 3.28373
C -3.62639 1.54941 2.27949
C -2.50326 1.27721 3.13074
C -1.35882 2.08041 3.13252
C -3.58682 2.63798 1.43528
C -2.48887 3.55771 1.51760
C -1.37010 3.30189 2.32971
C -4.51540 -1.20731 -.03219
C -4.56190 .11154 .46998
C -4.16569 .29077 1.82503
C -4.06838 .94342 -1.81741
C -3.92242 -.41807 -2.27196
C -4.20374 -1.47040 -1.42773
C -3.96230 2.47796 .03985
C -4.39404 1.23090 -.46221
C -1.10740 4.59375 -.21008
C -2.32329 4.11672 .18863
C -3.13351 3.35084 -.73450
C -2.59151 2.92530 -1.96637
C -3.10757 1.72696 -2.51169
C 1.08900 3.39239 2.50133
C -.10379 3.91526 1.95063
C .00566 4.58980 .71547
