92 

C 4.18752 -.57482 2.17312
C 4.42086 .79366 1.74966
C 4.34620 -1.62270 1.27035
C 4.73861 1.06465 .43653
C 1.68225 3.23891 2.32343
C 3.45875 1.63628 2.42753
C 2.88446 2.76982 1.78912
C 3.16328 3.02027 .37677
C 2.13832 3.66387 -.44872
C 4.11698 2.19224 -.24428
C 2.12858 3.38710 -1.81899
C 2.31405 -2.72189 2.14499
C 2.11030 -1.59708 3.03663
C 3.41815 -2.70032 1.27700
C 3.06431 -.57427 3.04578
C 2.66556 .80760 3.25861
C .93507 2.45686 3.25508
C 1.33369 1.14944 3.57381
C .32831 .11065 3.70491
C .75930 -1.27849 3.51472
C -.20460 -2.25435 3.35904
C .01166 -3.43160 2.53366
C 1.18609 -3.58058 1.79077
C 1.09855 -4.16899 .46624
C -1.26013 -3.83757 2.03255
C -1.35378 -4.37394 .76160
C -.16886 -4.55454 -.01237
C -2.26242 -2.89221 2.49668
C -3.34739 -2.51080 1.69044
C -3.92868 -1.23910 1.96527
C -.44856 2.79486 3.12529
C -1.44645 1.83493 3.25314
C -1.05445 .45675 3.59309
C -2.03400 -.60256 3.40678
C -1.59954 -1.93335 3.32520
C -3.29278 -.31488 2.81528
C 2.12327 -3.83938 -.52240
C 3.27478 -3.16615 -.09918
C -.54337 -4.34027 -1.40238
C .36972 -3.84338 -2.28897
C 1.74490 -3.66710 -1.88232
C -1.90846 -3.85795 -1.44171
C -2.28533 -2.80541 -2.30944
C -3.43067 -2.07740 -1.94546
C -3.42211 -3.02951 .32064
C -2.43120 -3.93127 -.12034
C -4.02743 -2.21557 -.67226
C 2.27067 -2.58828 -2.62929
C 3.35083 -1.82369 -2.15544
C 3.96180 -2.25776 -.95244
C 4.68826 -1.33289 -.11080
C 4.85216 -.02868 -.52074
C 2.32517 .18612 -3.28865
C 3.43070 -.41830 -2.53678
C 4.26521 .41486 -1.77263
C 2.20162 1.57030 -3.26774
C 2.98292 2.38833 -2.38318
C 3.97622 1.81621 -1.62262
C 1.17714 -1.97716 -3.38102
C -.18118 .01520 -3.73404
C 1.12172 -.60298 -3.61335
C -1.46332 2.11236 -3.38780
C -.25210 1.47601 -3.68826
C .91908 2.21539 -3.42209
C -1.26290 -2.15112 -3.13675
C .00905 -2.74209 -3.16547
C -3.62624 -.71600 -2.40967
C -2.63013 -.05760 -3.16461
C -1.37344 -.75434 -3.48177
C -2.65881 1.34526 -3.13196
C -2.75192 3.28373 -1.86880
C -1.50596 3.29607 -2.59710
C -.32187 3.81514 -2.02687
C .88713 3.34642 -2.56938
C -2.78508 3.77262 -.58848
C -4.40058 -.02345 -1.44908
C -4.22769 1.36679 -1.23690
C -3.45811 2.05749 -2.19686
C -4.40489 .93458 1.19378
C -4.63190 -.47903 .93969
C -4.65568 -.94334 -.34882
C -3.53061 3.04800 .43547
C -4.24886 1.87228 .13643
C -.53304 3.87460 2.15681
C -1.67573 4.04321 1.41482
C -2.81549 3.18035 1.66002
C -2.71762 2.09507 2.56056
C -3.61258 1.02819 2.35663
C -.32954 4.27690 -.64408
C .88659 4.15283 .15623
C .74835 4.02813 1.54363
C -1.57654 4.30682 .01428
