92 

C 2.38369 1.84325 -2.96140
C 2.40062 .46333 -3.11393
C 3.48162 -.29565 -2.47543
C 3.32896 -1.73670 -2.27744
C 3.96531 -2.35845 -1.15482
C 2.19222 -2.36064 -2.79315
C 1.15521 2.59207 -3.02443
C -.08722 1.97278 -3.19797
C -.11228 .52811 -3.42010
C 1.13577 -.18555 -3.45113
C 1.10705 -1.59043 -3.38377
C -2.56665 .52988 -2.85904
C -1.35017 -.19521 -3.23416
C -1.31896 -1.61822 -3.05771
C -.08790 -2.28578 -3.17921
C -3.65763 -.20459 -2.37912
C -1.26585 2.66828 -2.71632
C -1.09119 3.86484 -1.98877
C -2.51646 1.94869 -2.56277
C 1.62257 -3.51625 -2.17541
C 2.11761 -3.96914 -.93318
C 3.30075 -3.36606 -.43440
C 1.17417 -4.46735 .01606
C .21179 -3.49727 -2.43035
C -.70425 -4.01537 -1.52166
C -.17832 -4.59320 -.31140
C -2.20516 -4.01261 .89548
C -.91464 -4.41293 .92448
C -3.55439 -1.61751 -2.08683
C -2.38225 -2.32184 -2.34628
C -2.06595 -3.47302 -1.51612
C -2.85593 -3.70353 -.37404
C 1.26381 -4.02731 1.42443
C 2.32123 -3.18427 1.86298
C 3.45446 -3.08191 1.00688
C 4.36078 -2.01911 1.13914
C 4.16779 -1.06791 2.15827
C -.01612 -3.88211 1.93278
C -1.79059 -2.31870 2.67908
C -.38951 -2.71965 2.70407
C .61503 -1.80921 3.09501
C 2.01182 -2.12071 2.77158
C 2.99871 -1.12326 2.94760
C -3.41931 -.49619 2.61753
C -2.14767 -.96777 3.00459
C .23739 -.42690 3.45047
C -2.69990 -3.08811 1.90417
C 4.92525 -.23379 -.43767
C 4.84894 .74199 .64906
C 4.71596 -1.56684 -.19750
C 4.47068 .33304 1.90904
C 3.50505 1.12687 2.63811
C 3.02852 2.37084 2.13989
C 1.81136 2.81546 2.66537
C -1.11264 .00410 3.32582
C 1.28348 .57409 3.54590
C 2.62674 .23206 3.29307
C -1.42030 1.42985 3.15337
C -.38376 2.34525 3.19460
C .96129 1.93293 3.39395
C 3.25862 2.50959 -2.02894
C 4.37255 .38626 -1.63265
C 4.18323 1.77737 -1.32472
C 3.41648 2.79951 .79180
C 4.32174 1.98114 .09591
C 2.52574 3.55368 -1.37864
C 2.51031 3.65765 .02370
C .97152 3.76989 1.96719
C 1.28935 4.18281 .65006
C .20383 4.58224 -.16153
C .21109 4.30534 -1.59120
C 1.31449 3.72906 -2.15455
C -.36461 3.53509 2.35597
C -1.44899 3.83192 1.50785
C -1.14567 4.46352 .28191
C -4.62962 .99324 1.27689
C -3.65886 .90874 2.32681
C -2.65850 1.85925 2.49118
C -4.52050 2.01556 .34374
C -3.58735 3.07179 .56584
C -2.66484 3.03096 1.63056
C -3.88409 -2.52311 1.36961
C -4.95956 -.35575 .86008
C -4.28210 -1.25822 1.78224
C -4.48488 1.67339 -1.07574
C -4.61499 .35622 -1.46104
C -4.98150 -.66577 -.49546
C -4.38863 -1.91151 -.95741
C -3.97150 -2.87595 -.05287
C -1.96117 4.17615 -.88584
C -3.13924 3.50874 -.74867
C -3.50114 2.49695 -1.71291
