92 

C .06407 4.35319 .36399
C -1.14711 4.03871 -.25157
C -2.27157 3.63118 .58770
C -3.39018 2.89927 -.00703
C -4.14538 1.99205 .80506
C -3.37267 2.65872 -1.38188
C .18013 3.42066 -2.31909
C -1.10083 3.65697 -1.66505
C -2.24780 3.06503 -2.20971
C .21166 2.56726 -3.43242
C -.94651 1.86049 -3.86270
C -2.16778 2.14081 -3.29151
C 1.43245 3.61811 -1.58454
C 2.62214 2.84661 -1.92455
C 1.34258 4.17194 -.30402
C 3.62298 2.68097 -.94643
C -3.91531 1.44890 -1.92864
C -4.49307 .47577 -1.09607
C -4.65109 .78948 .28291
C -4.30303 -.89846 -1.45739
C -3.43638 -1.24523 -2.49728
C -2.72982 -.26735 -3.25685
C -3.10565 1.06967 -3.06124
C -4.23201 -1.94970 -.44018
C -4.25500 -1.62599 .93474
C -4.50265 -.26079 1.30519
C -3.45311 -2.40250 1.81636
C -3.36240 -2.96315 -.92566
C -1.34183 -4.24653 -.55146
C -2.57184 -3.74403 -.04306
C -2.65047 -3.46900 1.34549
C -.57434 .48260 -4.12368
C -1.37150 -.58447 -3.71876
C -.71425 -1.83237 -3.30043
C -1.51393 -2.81619 -2.56071
C -2.82629 -2.51911 -2.18131
C -.84512 -3.81019 -1.79586
C -2.73370 -1.76524 2.88790
C -2.85078 -.41065 3.14159
C -3.87658 .30140 2.42113
C -3.74280 1.72040 2.17085
C -2.70330 2.40577 2.71745
C -1.47189 -2.45674 3.05949
C -.27572 -1.75960 3.45436
C -.36862 -.34818 3.74149
C -1.66885 .32268 3.62234
C -1.68422 1.70598 3.50129
C 2.06427 -.20894 3.56203
C .82796 .44626 3.72802
C 2.22444 -3.70177 1.46781
C 1.03173 -3.49903 2.20257
C .97468 -2.36565 3.13114
C 2.14298 -1.58609 3.30185
C -1.43892 -3.51618 2.16576
C -.20298 -4.51278 .32764
C -.19178 -4.01215 1.64644
C .27647 4.12191 1.76488
C -2.04984 3.46585 1.96846
C -.74404 3.60463 2.52988
C .78049 1.87674 3.44425
C -.47473 2.47462 3.39341
C 1.62121 3.65884 1.96225
C 1.89690 2.53471 2.75300
C 3.20415 .44719 2.92213
C 3.10775 1.77021 2.44947
C 3.88404 2.10453 1.31454
C 3.42525 3.13105 .39114
C 2.31308 3.87480 .70471
C 3.95225 -.53236 2.23402
C 4.51397 -.25700 .95755
C 4.53312 1.09458 .55187
C 3.90090 -2.55416 .26696
C 3.36653 -2.81944 1.59912
C 3.34681 -1.81861 2.52887
C 4.32375 -.90300 -1.42991
C 4.44467 -1.29937 -.07130
C .96391 -4.43602 -.47456
C 3.44126 -1.57813 -2.30094
C 2.73571 -2.72677 -1.90074
C 3.11298 -3.29273 -.66007
C 2.17187 -4.09435 .09961
C .85146 .41166 -4.06050
C 2.83392 -.60514 -3.19433
C 1.50309 -.76213 -3.65901
C .71070 -1.91473 -3.25064
C 1.37708 -2.95038 -2.42629
C .59017 -3.87931 -1.76470
C 4.42611 1.47005 -.85592
C 4.31133 .49765 -1.81002
C 3.35774 .66655 -2.88662
C 2.53912 1.83028 -2.97094
C 1.34830 1.69973 -3.68026
