92 

C -.02414 -3.51427 2.18893
C -.19410 -2.48972 3.19842
C -1.19690 -3.97171 1.48409
C -1.51131 -1.99755 3.46234
C .66589 -.26262 3.94064
C .90119 -1.65491 3.56982
C 2.19162 -2.02995 3.11104
C 1.74474 .66654 3.82125
C 3.04243 .26075 3.28432
C 3.25772 -1.04825 2.94048
C -.65349 .26245 3.94481
C -.89014 1.65553 3.57918
C -1.73288 -.66685 3.82884
C -2.18312 2.03091 3.12807
C 2.35663 -3.02183 2.12790
C 1.24172 -3.70241 1.56605
C 1.32038 -4.13382 .16810
C 3.51540 -2.66168 1.32607
C 3.55486 -3.01205 .00624
C 2.48574 -3.80528 -.56920
C 4.16094 .28016 -1.56023
C 3.98767 -2.03714 -.97175
C 4.35073 -.73078 -.58913
C 4.32846 -.35553 .82466
C 4.10830 1.03852 1.19582
C 3.98455 -1.35910 1.75108
C 3.54977 1.30754 2.45710
C .10484 -4.36046 -.56769
C -1.14377 -4.32012 .14199
C 2.39884 -3.43485 -1.93838
C 1.19070 -3.52989 -2.60866
C .06523 -4.08359 -1.95445
C 3.24266 -2.27939 -2.16875
C 2.79466 -1.20943 -2.96740
C 3.38826 .04423 -2.71362
C -1.12199 -3.47914 -2.56100
C -2.33543 -3.36203 -1.84633
C -2.38027 -3.86191 -.50877
C -3.17911 -2.27826 -2.17050
C -.69586 -2.44837 -3.43413
C -.72569 .00693 -3.78151
C -1.43974 -1.25734 -3.59531
C -2.74559 -1.26131 -3.07060
C -.76215 2.44679 -3.43992
C -1.47215 1.26015 -3.55165
C 1.44873 -1.24599 -3.56244
C .73913 -2.43297 -3.44954
C 2.72421 1.27487 -3.08205
C 1.41589 1.27175 -3.60002
C .70107 .00767 -3.78499
C .67279 2.46232 -3.43146
C -4.00754 -1.66167 -1.17078
C -3.94791 -2.05654 .16504
C -3.18855 -3.24355 .45641
C -2.50605 -3.38838 1.72582
C -2.66563 -2.44439 2.69073
C -4.33070 .36092 .84824
C -4.10905 -1.03382 1.21487
C -3.54448 -1.30541 2.47278
C -3.98203 1.36251 1.77533
C -3.25018 1.04930 2.96045
C -3.03374 -.26073 3.29973
C -4.17486 -.26981 -1.53918
C -3.99867 2.04608 -.94627
C -4.36018 .73900 -.56495
C -2.81522 1.22245 -2.94972
C -3.40776 -.03147 -2.69589
C -3.25948 2.29081 -2.14625
C -2.49427 3.81316 -.54701
C -3.56092 3.01881 .03203
C -3.51518 2.66584 1.35095
C -1.32527 4.14056 .18554
C -1.23995 3.70697 1.58236
C -2.35270 3.02471 2.14798
C -.08089 4.09392 -1.94360
C -1.20936 3.54180 -2.59327
C -2.41447 3.44573 -1.91711
C 1.13873 4.32724 .14716
C -.11335 4.36856 -.55560
C 3.16218 2.29002 -2.18176
C 2.37166 3.87023 -.51163
C 2.32023 3.37286 -1.85001
C 1.10323 3.49110 -2.55762
C 2.67312 2.44645 2.68294
C 2.50941 3.39311 1.72136
C 3.18517 3.25020 .44764
C 3.94300 2.06361 .14895
C 3.99623 1.67139 -1.18827
C .02917 3.51821 2.19839
C .20370 2.49124 3.20411
C 1.52245 1.99840 3.45899
C 1.19898 3.97665 1.48843
