92 

C 1.26277 -3.42536 -2.43686
C 1.18965 -2.34983 -3.36548
C 2.33664 -1.54991 -3.49915
C 2.23134 -.16856 -3.90353
C 1.00942 .32751 -4.30062
C .06428 -3.95970 -1.81117
C -1.20127 -3.39430 -2.02135
C -1.33227 -2.28693 -2.98710
C -.13011 -1.79434 -3.68117
C -.16516 -.52204 -4.25319
C -3.52250 -1.76273 -1.96204
C -2.49125 -1.46962 -2.93717
C -3.35517 -2.72879 -.98940
C -2.18963 -3.56670 -.97512
C -1.81231 -4.10716 .26949
C 2.67655 1.87326 -2.59210
C 1.40147 2.41427 -3.04220
C 3.08229 .62244 -3.07924
C .63032 1.64873 -3.92905
C -.75397 3.51853 -2.26325
C .70703 3.42971 -2.24391
C 1.39218 3.96508 -1.15407
C -1.40693 4.08502 -1.15569
C -.68291 4.45734 .02022
C .69583 4.45503 .00424
C -.82133 1.67756 -3.89337
C -2.83787 2.20650 -2.70596
C -1.51889 2.58148 -3.09212
C -2.46408 -.11099 -3.46676
C -1.29603 .34184 -4.08616
C -3.30533 .89091 -2.89963
C 2.65996 3.41839 -.69895
C 3.26615 2.32876 -1.33279
C 4.08175 1.42696 -.53349
C 2.71140 3.58445 .71971
C 3.43042 2.69595 1.48433
C 4.17249 1.65855 .85394
C .82515 1.65606 3.90443
C 2.84364 2.18408 2.71954
C 1.52573 2.56147 3.10742
C .76388 3.50495 2.28311
C -.69750 3.42116 2.26340
C 1.41871 4.07461 1.17838
C -1.38093 3.96408 1.17626
C 4.32881 .06373 -1.00513
C 3.86434 -.29608 -2.26838
C 4.21153 .55861 1.80619
C 4.32991 -.72290 1.37100
C 4.49066 -.98977 -.04222
C 3.30697 .86620 2.90705
C 2.46232 -.13552 3.46961
C 1.29555 .31797 4.09096
C 3.96641 -2.26769 -.27074
C 3.39266 -2.60308 -1.52846
C 3.40992 -1.63091 -2.54290
C 2.32650 -3.55089 -1.53699
C 3.34445 -2.74390 .97969
C 2.17636 -3.57800 .96155
C 1.79750 -4.11110 -.28582
C -.46491 -4.47661 .51734
C .44904 -4.47538 -.53542
C 2.48480 -1.49172 2.93370
C 3.51490 -1.78329 1.95693
C .16179 -.54311 4.25384
C .12247 -1.81253 3.67604
C 1.32297 -2.30558 2.97979
C 1.18844 -3.40777 2.00866
C -.07885 -3.96837 1.79561
C -1.01017 .31011 4.30486
C -2.23371 -.18003 3.90520
C -2.34343 -1.55902 3.49436
C -1.19926 -2.36209 3.35739
C -1.27573 -3.43303 2.42372
C -2.67237 1.86979 2.60421
C -1.39540 2.40426 3.05672
C -.62667 1.63178 3.93972
C -3.08205 .61771 3.08489
C -4.16837 1.67656 -.84289
C -3.42314 2.71435 -1.46816
C -2.70137 3.59669 -.69927
C -4.07902 1.43813 .54357
C -3.26054 2.33336 1.34727
C -2.65064 3.42382 .71865
C -4.49557 -.97513 .04044
C -4.33381 -.70207 -1.37126
C -4.21086 .58099 -1.80015
C -3.86688 -.29434 2.26953
C -4.33067 .07336 1.00839
C -2.33971 -3.55116 1.52319
C -3.41682 -1.63203 2.53765
C -3.40287 -2.59949 1.51896
C -3.97564 -2.25604 .26303
