92 

C -4.08323 2.76779 .51449
C -4.59356 1.86494 -.40296
C -5.09119 .57457 .03254
C -4.82908 -.36646 -1.04773
C -4.61082 -1.72210 -.75971
C -3.02664 3.65164 .12398
C -3.89586 1.67597 -1.64419
C -2.77003 2.41767 -1.98515
C -2.36831 3.51472 -1.11369
C -.19564 3.61815 -2.30898
C -1.02613 4.08168 -1.24253
C -.38063 4.59232 -.10329
C -1.71268 -2.48625 -2.91876
C -3.71524 -2.47036 -1.54780
C -2.91742 -1.83348 -2.54355
C -4.03586 .27881 -2.02874
C -.57865 2.43529 -3.06411
C -1.78086 1.78441 -2.87061
C -1.84657 .34882 -3.16287
C -3.00497 -.40702 -2.71905
C -.64208 -.34548 -3.49392
C -.62269 -1.75933 -3.39982
C -1.19963 -3.65249 -2.19802
C -1.85392 -4.07641 -.99713
C -3.10575 -3.48675 -.68117
C -1.04306 -4.49129 .07499
C .19849 -3.63481 -2.27956
C 1.02839 -4.08988 -1.20894
C .38298 -4.59215 -.06574
C 2.23627 -3.88467 1.35084
C .94773 -4.32328 1.23958
C 3.89708 -1.68734 -1.62849
C 2.77153 -2.43167 -1.96386
C 2.37012 -3.52211 -1.08394
C 3.02822 -3.65036 .15527
C .62630 1.73471 -3.41335
C .64581 .32040 -3.49620
C 3.00850 .38780 -2.72052
C 1.84974 -.37147 -3.15898
C 1.78335 -1.80514 -2.85515
C .58168 -2.45802 -3.04433
C 4.03814 -.29324 -2.02416
C -1.32043 -3.99597 1.39637
C -2.43672 -3.21580 1.65902
C -3.44991 -3.18819 .65031
C -4.44438 -2.13860 .62527
C -4.45021 -1.19376 1.62387
C -.06903 -3.74919 2.06552
C 1.52430 -2.08924 2.88195
C .16198 -2.55064 2.75716
C -.95415 -1.62717 2.94838
C -2.27587 -2.05787 2.53684
C -3.32193 -1.13246 2.55748
C 3.08721 -.19917 2.89129
C 1.78170 -.67685 3.12608
C -.69439 -.23894 3.18968
C 2.55329 -2.87393 2.31697
C -3.80451 2.31251 1.87058
C -4.87107 .16915 1.34611
C -4.10471 1.02399 2.23100
C -2.23486 3.89561 1.31819
C -2.55242 2.89269 2.29236
C -.94618 4.33331 1.20377
C .69470 .26470 3.18744
C -1.78132 .70210 3.12017
C -3.08666 .22241 2.88849
C 3.32278 1.15299 2.54902
C 2.27657 2.07790 2.51916
C .95453 1.65070 2.93404
C -.16140 2.57259 2.73530
C -1.52380 2.11247 2.86436
C .07024 3.76532 2.03413
C 4.45181 1.20708 1.61580
C 4.44743 2.14457 .60954
C 3.45271 3.19416 .62504
C 2.43813 3.22877 1.63230
C 1.32188 4.00695 1.36365
C 3.80548 -2.29729 1.89087
C 4.87259 -.15798 1.34932
C 4.10558 -1.00582 2.24064
C 4.61476 1.71766 -.77251
C 4.83152 .35901 -1.04912
C 5.09292 -.57372 .03846
C 4.59451 -1.86770 -.38644
C 4.08448 -2.76371 .53862
C 1.71611 2.46533 -2.93797
C 3.71962 2.45997 -1.56714
C 2.92105 1.81537 -2.55738
C 1.04540 4.49244 .03883
C 3.10940 3.48297 -.70897
C 1.85679 4.06993 -1.02953
C 1.20236 3.63706 -2.22696
