92 

C -3.85804 -2.12972 .68430
C -3.70231 -1.24504 1.82711
C -4.46929 -1.61870 -.47881
C -4.22674 .04880 1.75024
C -1.99833 -.35158 3.47201
C -2.64127 -1.48687 2.81078
C -1.94671 -2.69506 2.74131
C -.74330 -.52929 4.03948
C -.04615 -1.77807 3.96351
C -.61899 -2.83525 3.26212
C -2.39663 1.01703 3.13119
C -1.39297 2.08241 3.09118
C -3.57214 1.17937 2.40763
C -1.65474 3.20780 2.30199
C -3.94248 -1.95679 -1.79485
C -2.03148 -3.54034 1.56026
C -2.94367 -3.26301 .52763
C -2.58597 -3.70228 -.76798
C -3.03925 -2.96605 -1.93699
C .16528 -3.56580 2.32231
C -.73565 -4.04113 1.28917
C -.28834 -4.23824 -.02831
C -1.27287 -4.16980 -1.04361
C 1.49839 -3.21634 2.04271
C 2.01666 -3.42278 .68222
C 3.33431 -1.61965 2.47706
C 2.11729 -2.23663 2.90164
C 1.33507 -1.51215 3.82271
C .38411 -3.46151 -2.67617
C -1.93617 -2.81445 -2.84682
C -.92346 -3.71153 -2.37767
C 3.21170 -2.74978 .29129
C 1.11386 -3.94551 -.34648
C 1.42317 -3.70155 -1.68926
C 3.91158 -1.93340 1.25826
C .72844 -2.28341 -3.42022
C -.20140 -1.25570 -3.63264
C -1.59895 -1.54623 -3.36848
C -2.54518 -.45964 -3.19041
C -3.77276 -.73903 -2.55037
C -4.50860 .27230 -1.85092
C -2.06693 .90857 -3.19903
C -2.88557 1.89966 -2.63978
C -4.10414 1.58748 -1.94243
C -.13877 2.44694 -2.87884
C 1.24466 2.66234 -2.84390
C 1.70378 .36870 -3.54342
C .28585 .12700 -3.64097
C -.64049 1.19494 -3.36397
C 2.15483 1.67476 -3.24396
C 2.10496 -2.00578 -3.12098
C 3.83013 -.46051 -2.51840
C 2.62377 -.72392 -3.23989
C 3.45697 -2.44804 -1.10722
C 2.52606 -2.87754 -2.05514
C 4.23746 -1.30516 -1.46632
C -4.86555 .54066 .56757
C -4.57873 1.96086 .43943
C -4.92323 -.26964 -.55879
C -4.22687 2.48189 -.80016
C -3.14428 3.44238 -.89373
C -3.82985 2.35550 1.61893
C -2.86668 3.34391 1.54284
C -2.52936 3.92684 .25599
C -.95422 3.30494 -2.02969
C -2.32400 3.07927 -2.01386
C -1.12433 4.18841 .24707
C -.34308 3.95772 -.88710
C 3.21269 3.04104 -1.64902
C 1.86721 3.47861 -1.80125
C 1.09847 3.88373 -.70531
C 3.78257 2.99784 -.37558
C 2.96078 3.28543 .75603
C 1.64221 3.71508 .62330
C 4.90866 .88936 -.91668
C 4.24502 .89892 -2.20680
C 3.42335 1.94060 -2.56676
C 4.67772 1.91638 -.01182
C 4.53283 .26750 1.82822
C 4.74432 -.79686 .86360
C 4.91454 -.49288 -.46303
C 4.42959 1.59632 1.38774
C 1.51171 -.05890 3.94403
C 2.61383 .60966 3.32680
C 3.63693 -.21552 2.80234
C -.59702 3.82238 1.55789
C .72760 3.46588 1.73573
C 1.05404 2.48159 2.75424
C -.01010 1.79292 3.40269
C .26097 .53140 4.02316
C 3.35281 2.40055 1.84684
C 2.39925 1.91326 2.77034
