92 

C -.74859 4.15945 -.47481
C -2.03624 4.03955 .07523
C -3.15200 3.55778 -.68889
C -.53150 3.71772 -1.83409
C -1.61116 3.14763 -2.53173
C -2.93210 3.09313 -1.97934
C 3.18502 3.20179 -1.56469
C 1.88349 3.80505 -1.47768
C .80645 3.37217 -2.26957
C 3.37897 2.13093 -2.42132
C 2.27521 1.64397 -3.19989
C 1.00261 2.23499 -3.14814
C -4.64781 1.66198 -.21648
C -4.36650 1.14537 -1.54647
C -4.04114 2.83399 .20705
C -3.54001 1.84770 -2.40765
C -2.56981 1.13413 -3.18949
C -4.23761 -.28339 -1.45801
C -3.32767 -1.00086 -2.25287
C -2.44502 -.26355 -3.13639
C -.13184 1.41898 -3.52209
C -1.41181 1.96042 -3.32185
C 2.41160 .22713 -3.32593
C 1.30264 -.61173 -3.52088
C -.00104 -.01077 -3.67248
C -1.17298 -.83869 -3.51535
C -1.00089 -2.21773 -3.31403
C -3.55021 1.82049 2.39696
C -4.21616 .60523 1.96862
C -3.45536 2.90167 1.53643
C -4.72396 .51741 .67877
C -4.47384 -.67141 -.08632
C -3.49711 -.50524 2.51942
C -3.33978 -1.71560 1.82084
C -3.82754 -1.79249 .46217
C -1.92551 -2.98273 -2.51854
C -2.95600 -2.33175 -1.81718
C -3.22413 -2.73903 -.45628
C -2.47395 -3.79359 .09179
C -1.10273 3.29207 2.24025
C -1.19370 2.14496 3.12306
C -2.21480 3.62158 1.44702
C -2.40657 1.43974 3.17719
C -2.41204 .01685 3.30866
C -1.23054 -.71573 3.50688
C .01235 .00310 3.65605
C .01101 1.43819 3.49998
C 1.23581 2.09423 3.29752
C 1.21134 -2.10367 3.30594
C 1.25563 -.71395 3.50189
C -2.01688 -3.73760 1.46136
C -2.28454 -2.60876 2.25436
C -1.24175 -2.11285 3.13182
C -.02409 -2.81047 3.18118
C 1.32528 3.29161 2.50278
C .19791 3.75751 1.80324
C .37376 4.21269 .44241
C 2.64582 3.35673 1.95043
C 2.82231 3.83496 .65827
C 1.66710 4.20966 -.10736
C 3.36570 2.17423 2.38325
C 3.77435 3.19282 -.23518
C 4.48632 2.08316 .19250
C 4.25360 1.54777 1.52447
C 2.46953 -.02573 3.12031
C 2.46513 1.37753 3.16799
C 4.25677 .11306 1.44142
C 3.41653 -.68191 2.23926
C 1.59841 -3.96198 1.96679
C 2.20271 -2.78323 2.51295
C 3.16897 -2.04290 1.80876
C 1.92295 -4.35962 .67603
C 2.82399 -3.54982 -.09448
C 3.47381 -2.42872 .44930
C -.42669 -4.92696 .21585
C -.77260 -4.45190 1.54611
C .21487 -3.99231 2.40149
C .88978 -4.86709 -.21380
C .16515 -4.00340 -2.40282
C -1.21534 -4.09883 -1.96792
C -1.50207 -4.51996 -.67572
C 1.19065 -4.36711 -1.54593
C 2.52639 -2.39532 -2.26157
C 1.44249 -2.00059 -3.14051
C .29433 -2.80750 -3.18691
C 2.36385 -3.54107 -1.46422
C 4.52805 -.25651 .07098
C 4.66765 .94738 -.69861
C 4.15391 .98360 -1.98862
C 3.98769 -1.43415 -.47308
C 3.49497 -1.40726 -1.83184
C 3.54012 -.19020 -2.53496
