92 

C -.20196 -1.97640 -3.81054
C 1.10486 -2.26514 -3.41343
C 2.08489 -1.27628 -3.71807
C -.58614 -.65320 -4.19255
C .33027 .39549 -4.18099
C 1.70364 .03017 -4.08705
C 1.30654 -3.17086 -2.28952
C 2.60574 -3.12840 -1.65445
C -1.32375 -2.60284 -3.17970
C -1.16848 -3.39174 -2.03989
C .19533 -3.68060 -1.56602
C .39530 -4.11519 -.17102
C -.72706 -4.24980 .66323
C -2.44938 -1.69856 -3.34107
C -3.49547 -1.73542 -2.43128
C -3.44066 -2.67032 -1.32980
C -2.31004 -3.46763 -1.11591
C -2.06549 -3.88819 .22441
C .87809 2.60780 -3.30075
C -.11242 1.71415 -3.70896
C -2.41808 .77328 -3.26862
C -1.96753 -.45370 -3.81466
C 1.67964 -3.92896 .46920
C 2.77597 -3.44367 -.31997
C -.65554 -3.97164 2.05937
C .56354 -3.62492 2.63582
C 1.74702 -3.69963 1.85973
C -1.83384 -3.27077 2.44406
C -1.74798 -2.10615 3.22598
C -2.81172 -1.14918 3.08264
C -4.14980 -2.06652 -.22534
C -3.76463 -2.34037 1.10859
C -2.75722 -3.33807 1.30731
C -3.84587 -1.29533 2.05661
C 2.68288 -2.71182 2.41363
C 3.69392 -2.11545 1.60298
C 3.79662 -2.54554 .25230
C 4.08314 -.79928 1.90762
C 1.99589 -1.95467 3.36903
C 2.27039 -.57480 3.57148
C 3.41767 -.05957 2.94673
C 2.52758 2.20691 3.02888
C 3.50439 1.33782 2.59849
C -.45599 -1.63434 3.68590
C .64551 -2.47487 3.48649
C -2.59189 .19845 3.29903
C -1.29342 .72062 3.64274
C -.22220 -.18778 3.87378
C 1.14835 .31605 3.88064
C 1.35047 1.68749 3.71164
C 4.43804 .12077 .86343
C 4.42294 -.26602 -.47551
C 4.21881 -1.66056 -.74918
C 3.57712 -2.08464 -1.97411
C 3.31713 -1.17263 -2.94783
C 3.58453 2.04401 -1.06295
C 4.03502 .72365 -1.48240
C 3.61376 .23709 -2.73623
C 2.77597 2.77699 -1.94224
C 2.27150 2.20923 -3.14946
C 2.68406 .95725 -3.53876
C 4.02873 1.45243 1.27564
C 2.55314 3.36463 .84722
C 3.51975 2.38624 .36421
C .37343 4.47427 .33233
C 1.64904 4.01535 -.10357
C 1.77410 3.70899 -1.46133
C 2.13315 3.29017 2.19212
C -1.92323 4.16111 .33509
C -.75960 4.39394 -.50833
C -.66941 3.80947 -1.80466
C .62246 3.60150 -2.30287
C -2.99218 3.48561 -.16342
C .77406 3.62840 2.58401
C -1.46405 3.91540 1.69622
C -.06898 4.24633 1.70305
C -3.51429 .94521 2.45551
C -3.72862 2.57469 .68678
C -3.19988 2.20853 1.97609
C -1.97167 2.85515 2.45578
C -1.04626 2.11388 3.32152
C .26705 2.57666 3.43062
C -4.54953 -.75862 -.61716
C -4.31022 1.61760 -.15255
C -4.58852 .29638 .31930
C -4.26225 .00186 1.67149
C -1.75040 2.96908 -2.30083
C -1.47815 1.89510 -3.19815
C -2.95383 2.92990 -1.51124
C -3.79618 1.82819 -1.51574
C -3.55428 .72287 -2.38791
C -4.08291 -.53232 -1.98860
