92 

C -4.27734 .29458 -2.06575
C -4.32666 -1.13303 -1.80912
C -4.55535 1.19955 -1.04582
C -4.58885 -1.59613 -.53758
C -1.30542 -3.12125 -2.66375
C -3.27210 -1.75836 -2.57863
C -2.55631 -2.87940 -2.08408
C -2.78622 -3.33629 -.71591
C -1.68049 -3.95101 .02512
C -3.82345 -2.71119 .00143
C -1.68261 -3.84115 1.41812
C -2.70814 2.65909 -1.79354
C -2.36399 1.67442 -2.80006
C -3.77918 2.38785 -.92931
C -3.17165 .54271 -2.92827
C -2.59392 -.73796 -3.29569
C -.66133 -2.13135 -3.45887
C -1.22774 -.85982 -3.61691
C -.36341 .30872 -3.58755
C -.98168 1.58711 -3.28476
C -.16038 2.67081 -3.04328
C -.54613 3.74413 -2.13132
C -1.70563 3.62987 -1.35763
C -1.66351 4.06362 .02579
C .65058 4.32727 -1.62584
C .70486 4.72431 -.29140
C -.45195 4.57596 .52920
C 1.77538 3.61950 -2.21970
C 1.87583 4.37290 .50805
C 2.96853 3.78160 -.08416
C 2.92849 3.41524 -1.49894
C 1.25792 2.54306 -3.02732
C 1.87577 1.28320 -3.10099
C 1.05495 .14116 -3.43626
C -2.59730 3.46487 .98057
C -3.66294 2.70118 .49204
C .01840 4.19527 1.85992
C -.78342 3.45791 2.68134
C -2.14897 3.17114 2.29773
C 1.42719 3.89475 1.78724
C -2.50888 1.94990 2.90892
C -3.50652 1.11951 2.36492
C -4.20285 1.61273 1.23420
C -4.82618 .70774 .29262
C -4.81802 -.64600 .54362
C -2.21363 -.86557 3.22992
C -3.40499 -.31970 2.57449
C -4.15518 -1.15640 1.73006
C -1.93361 -2.21538 3.05753
C -2.63580 -3.01830 2.09756
C -3.70436 -2.48512 1.41478
C -1.31398 1.38889 3.53420
C .28099 -.44453 3.59937
C -1.09453 .02231 3.60210
C 1.77320 -2.33454 3.08348
C .50754 -1.87120 3.43843
C -.58176 -2.71992 3.12699
C 1.07572 1.87317 3.15976
C -.24356 2.30622 3.35981
C 4.47266 .15341 1.24881
C 3.54511 .79215 2.09827
C 2.66603 -.03723 2.90759
C 1.36023 .47119 3.34148
C 2.86741 -1.42125 2.88281
C 1.96455 2.72770 2.36990
C 3.68592 2.75895 .61947
C 3.16566 2.16607 1.78829
C 3.18612 -3.28804 1.50952
C 1.93566 -3.45576 2.20452
C .80888 -4.02257 1.57493
C -.44085 -3.74226 2.16465
C 3.25764 -3.62299 .17070
C 4.59943 -1.61237 -.28532
C 4.54136 -1.27311 1.13253
C 3.79258 -2.05640 1.98576
C 3.94392 -2.72870 -.75266
C 4.29986 1.93240 -.39416
C 4.53769 -.39029 -1.03860
C 4.70708 .67402 -.08118
C .97152 -3.49148 -2.56080
C .75899 -2.29599 -3.33644
C 1.62020 -1.20222 -3.25987
C 2.13361 -3.64077 -1.85291
C 3.15777 -2.63020 -1.95464
C 2.89830 -1.38823 -2.57106
C 3.64409 -.23023 -2.11710
C 3.15758 1.10961 -2.42333
C 3.65558 2.18420 -1.66180
C .84859 -4.31407 .14755
C -.38787 -4.21462 -.63525
C -.27960 -3.89167 -1.98952
C 2.08352 -4.14034 -.50605
