92 

C -2.87621 3.29292 -1.23120
C -3.65500 2.12871 -1.48241
C -4.50025 1.70068 -.44734
C -4.99635 .34730 -.40414
C -4.70126 -.52128 -1.43952
C -1.66801 3.55841 -1.98065
C .26596 2.66716 -3.09006
C -1.12584 2.58390 -2.81992
C -1.78982 1.28859 -2.96754
C -3.13659 1.14602 -2.43194
C -3.71343 -.11934 -2.42874
C -2.68839 -3.45064 -1.77234
C -4.52161 -1.93194 -1.17772
C -3.51830 -2.40591 -2.11027
C 1.02273 1.48215 -3.40870
C .45491 .22397 -3.38418
C -1.00707 .12848 -3.25504
C -1.58628 -1.18205 -3.09630
C -2.95553 -1.27323 -2.80146
C -1.31837 -3.44510 -2.21077
C -.73367 -2.33098 -2.81933
C -2.72494 -3.99677 -.42993
C -3.49758 -3.37535 .53034
C -4.48100 -2.38655 .14430
C -4.55112 -1.42379 1.22138
C -4.89010 -.11473 .96369
C -1.38379 -4.41904 -.09559
C -.81856 -4.10456 1.16782
C .56726 -4.21576 1.27390
C .81411 -4.11192 -1.13947
C -.57153 -4.22566 -1.24475
C 1.37979 -4.41635 .12631
C 1.49453 -3.16587 -2.01278
C 2.84636 -2.91970 -1.74112
C 2.72515 -.70094 -2.77866
C 1.32596 -.93089 -3.08115
C .72823 -2.17945 -2.74269
C 3.46487 -1.71953 -2.15037
C -2.40356 1.74606 2.99739
C -4.29696 .94380 1.74891
C -3.25938 .67173 2.66137
C -1.50048 -3.15305 2.03418
C -2.85255 -2.91051 1.76037
C -3.47277 -1.70807 2.16028
C 1.31279 -3.42699 2.23432
C .72633 -2.30936 2.83493
C -.73578 -2.16023 2.75701
C -1.33534 -.90975 3.08563
C -2.73478 -.68376 2.78078
C -.46594 .24862 3.37949
C -1.03549 1.50615 3.39384
C -2.45722 2.98161 2.33420
C -3.27744 3.12245 1.17488
C -4.20811 2.10734 .90991
C -2.72590 3.82339 .05296
C -1.12419 3.57656 2.38166
C .79540 4.38252 1.12263
C -.61323 4.34926 1.28552
C -1.41494 4.46826 .12424
C 3.70246 -.09578 2.42667
C 3.12400 1.16867 2.42030
C 1.77733 1.31316 2.95461
C 1.11160 2.60638 2.79657
C -.28012 2.68949 3.06587
C 1.65219 3.57575 1.94990
C 2.94649 -1.24808 2.80842
C 1.57721 -1.15688 3.10297
C .99617 .15419 3.25123
C 1.39762 4.46960 -.16179
C .59623 4.34080 -1.32215
C -.81263 4.37293 -1.15946
C 1.10855 3.56063 -2.41242
C 2.70961 3.82718 -.08536
C 4.19387 2.10661 -.92907
C 3.26218 3.11838 -1.20194
C 2.44233 2.96754 -2.36023
C 4.69091 -.50347 1.44029
C 4.98454 .35765 .39830
C 4.48655 1.71045 .43123
C 3.64112 2.14507 1.46304
C 2.86094 3.30635 1.20265
C 2.68276 -3.43347 1.79588
C 4.51356 -1.91635 1.18938
C 3.51108 -2.38488 2.12570
C 4.87952 -.11487 -.96600
C 4.54289 -1.42656 -1.21370
C 4.47397 -2.38120 -.12910
C 3.49199 -3.37437 -.50746
C 2.72021 -3.98964 .45764
C 2.39045 1.72669 -3.01388
C 4.28493 .93677 -1.75931
C 3.24784 .65614 -2.66966
