86

 C     -1.5849572246     2.2903237868     -3.0495917324
C     -2.2428971806     1.0579070739     -3.1892172559
C     -3.4365660951     0.8882179714     -2.4078534575
C     -3.8642666031     -0.4199430946     -2.0072802151
C     -3.182149303     -1.5186447601     -2.4566541861
C     -0.1891647234     2.4200256864     -3.2958911311
C     0.6351014702     1.2986957986     -3.5792674608
C     -0.0010570412     -0.0059395619     -3.7282307129
C     -1.4483614102     -0.1068421813     -3.5737466134
C     -2.0063720858     -1.3805396086     -3.2848396838
C     2.193637442     -1.0539795036     -3.2896660831
C     0.8105807388     -1.2084927793     -3.5734828147
C     2.7788891875     0.2207703275     -3.0485491054
C     2.0408687745     1.4062163441     -3.1943326608
C     2.4901148136     2.5282624505     -2.4175918411
C     -2.6912150304     -3.4566473712     0.6570889131
C     -3.4457619798     -2.6593716004     -0.2481545828
C     -3.0349710968     -2.6896037079     -1.6091893998
C     -1.8328963581     -3.3360702724     -2.0093783573
C     0.3466170155     -4.1564497188     -1.3381607426
C     -1.049578078     -4.0887307002     -1.091543472
C     -1.5153570446     -4.147475464     0.2549758693
C     0.2004966575     -2.4778434479     -3.1830294332
C     -1.195280997     -2.5237300701     -3.0381290454
C     0.9470560558     -3.4244847794     -2.4015208845
C     -4.1085278811     -1.4363413147     0.2638470597
C     -4.3689326948     -0.3708820013     -0.6426189191
C     -2.4524683577     -3.0042930358     2.0200333465
C     -3.0003706757     -1.8326957578     2.4690850315
C     -3.9050014692     -1.0728147311     1.6234309976
C     -1.1212593076     -3.3579792732     2.4166580561
C     -0.3257016393     -2.4481083395     3.1935015211
C     1.0656816241     -2.5681564749     3.0488781149
C     1.2992767645     -4.2230294281     -0.2359257637
C     0.8373985738     -4.1330889862     1.1102099942
C     -0.560405363     -4.1258937994     1.3570069995
C     1.6594091997     -3.4181276489     2.0243385331
C     -3.7903115958     0.2881913601     2.0204926354
C     -3.9977398185     1.3533153154     1.1012876821
C     -4.3058607852     0.9922306237     -0.2433877859
C     -3.2926874912     2.5613060288     1.3430179363
C     -2.758079653     0.3821021429     3.0452586316
C     -1.9585190384     1.5276488997     3.1852457818
C     -2.3480890006     2.6679355723     2.402787589
C     -0.0877528329     3.5330242575     2.4529711278
C     -1.375957922     3.6422976775     2.0025187942
C     -0.8678659165     -1.1463598948     3.5773264509
C     -2.2408263133     -0.9205695838     3.2927314186
C     1.9360099519     -1.4681743886     3.2900704875
C     1.4460823388     -0.1654114791     3.5726831989
C     0.0061289042     0.0124810405     3.7265213218
C     -0.560388099     1.3481022132     3.5710890024
C     0.3218586403     2.42296446     3.2821605391
C     -2.8333058518     3.3943396327     0.2376045326
C     -3.01442885     2.9554165911     -1.1070059813
C     -3.7709946234     1.7789640409     -1.3488193359
C     -1.970343462     3.2532703462     -2.0254563111
C     -0.8097317105     3.9730196607     -1.6278316118
C     -0.5790984142     4.319904974     -0.2682283632
C     -1.6475287371     4.0692750398     0.6374811868
C     1.0232415617     3.9325315492     1.6062185912
C     0.8111017132     4.2844496305     0.2448763745
C     1.8646667517     3.9731968628     -0.6593859189
C     1.5708177899     3.5545575685     -2.0223633676
C     0.2785300922     3.5111650603     -2.4724564159
C     2.1442014789     3.1544906808     2.0075220618
C     3.8647862121     1.5841719901     1.3386434254
C     3.1711649294     2.7975699847     1.0908104792
C     3.0133667528     3.2387917422     -0.255995142
C     3.1027749103     -1.6722641593     2.4627765977
C     3.8419283426     -0.6133263685     2.0080785735
C     3.4838806762     0.7175267199     2.4020370474
C     2.3009512196     0.9538275933     3.1824885291
C     1.7087054754     2.2183723042     3.0363578578
C     2.509852919     -3.5971343809     -0.6412827342
C     3.3055659094     -2.8363051625     0.2600861706
C     2.8939328349     -2.8380715806     1.6211987579
C     3.8476294069     -1.2854508101     -1.6193238217
C     2.9040641442     -2.0007895577     -2.4613384685
C     2.2950774549     -3.1394714718     -2.0064244221
C     4.3482857843     -0.597765398     0.6432418761
C     4.0317285197     -1.6524109185     -0.2578960988
C     3.4280377162     2.3772691348     -1.3571911642
C     4.3572145113     0.7648041244     0.2372026979
C     4.0684173202     1.1349729376     -1.1093118328
C     3.8049071761     0.0776673674     -2.023167463


