86

 C     -2.5098971322     3.1050431838     1.9938036163
C     -2.650990172     3.5994773998     0.6394183582
C     -3.2051879136     1.9672688322     2.3871749415
C     -3.4467453747     2.9308440714     -0.2687112503
C     0.4745408514     4.0034175229     -1.317310143
C     -1.3743530206     4.1133689564     0.2133969
C     -0.9148732261     3.9238411133     -1.1241314089
C     -1.7002863735     3.1195300846     -2.0546587131
C     -0.996825737     2.2946002449     -3.0507211809
C     -2.987454151     2.7181400813     -1.6279281997
C     -1.6485578613     1.158546712     -3.5496257048
C     -1.2003494121     1.0984095806     3.5577743635
C     -0.464567537     2.3016116739     3.1441671187
C     -2.5538563921     0.9759030354     3.1772973322
C     -1.1484076866     3.2751565054     2.3836983236
C     1.7008926931     3.1057603507     2.0485029158
C     0.9945710931     2.2794563571     3.0413853182
C     1.6423627486     1.1392368674     3.5359153352
C     2.9866583806     2.701556743     1.620222156
C     3.5508074771     1.4534241025     2.0477825352
C     2.9077555237     0.7056477145     3.0098161576
C     -0.470850125     4.0000021441     1.3145710937
C     1.3784095729     4.1094238706     -0.2157271606
C     0.9182651508     3.916358301     1.1210732253
C     0.917279337     -0.0525896014     3.9403548755
C     -0.4817413005     -0.1386868412     3.8696346004
C     -1.0830847509     -1.4503138937     3.6036082837
C     1.7582975807     -1.1800981891     3.6462869024
C     1.1926413377     -2.3955742441     3.348648508
C     -0.2233187475     -2.5546166788     3.3927202995
C     2.8562220823     -3.1588763607     0.1453272673
C     1.748371322     -3.198112196     2.2733445559
C     2.8242203371     -2.7003601216     1.4838298695
C     3.4351805187     -1.403576691     1.8080815944
C     4.0674991883     -0.6034414847     0.7487918678
C     2.9368448529     -0.7246917003     2.9422912666
C     4.1975680148     0.7913602666     0.9443068027
C     -2.4023256873     -1.5149528421     2.9874569899
C     -3.1152480465     -0.3207914263     2.8064337031
C     -0.5366137911     -3.5928338574     2.4264672016
C     -1.7451495837     -3.5982567038     1.7816665555
C     -2.7113653842     -2.571600598     2.0786865924
C     0.6776619743     -3.9574638512     1.7109846631
C     0.6367280602     -4.2757553326     0.3295725058
C     1.8060846937     -3.9457813746     -0.4093280982
C     -3.4441346607     -2.3248946083     0.8835877493
C     -4.0284398426     -1.0689863415     0.6153710145
C     -3.9873968405     -0.128618154     1.6882426516
C     -4.0733608367     1.2896836455     1.4443418667
C     -4.1862900248     1.7469854431     0.146425325
C     -3.4501770228     -1.3846617965     -1.8315785478
C     -4.0797183656     -0.5864285013     -0.7692147229
C     -4.2049659614     0.8095650059     -0.9593653692
C     -2.9494937535     -0.7031530056     -2.9631776472
C     -2.9154583884     0.7273257065     -3.025202807
C     -3.5559190204     1.4736160659     -2.0602865755
C     -2.8773012999     -3.1483380298     -0.1755978785
C     -1.7695802996     -3.1832292865     -2.303749018
C     -2.8437105037     -2.684796668     -1.5123216777
C     -0.6616777003     -4.2721734684     -0.364152867
C     -1.8298881433     -3.9410023503     0.376021884
C     -0.7015122616     -3.9484338236     -1.7443311037
C     0.2043280367     -2.5422660444     -3.4206629985
C     -1.2110658947     -2.378490973     -3.3759702926
C     -1.7725179763     -1.1599305024     -3.6689221164
C     1.0679171181     -1.4401456855     -3.6273075965
C     0.4711133646     -0.1254361212     -3.8882821574
C     -0.9276019866     -0.0342213639     -3.9586491339
C     2.6922966257     -2.5729021962     -2.1067149125
C     1.722535948     -3.5973510889     -1.8136474373
C     0.5140321117     -3.5852680485     -2.4584133832
C     3.1039677696     -0.3207336324     -2.8258041517
C     2.3869242777     -1.5117164479     -3.0114163561
C     4.1821394457     1.7330818966     -0.1578678125
C     4.0676505551     1.2811718025     -1.4575385168
C     3.9767741054     -0.1358774511     -1.7068901139
C     4.0145560927     -1.080494855     -0.6376430309
C     3.4259113461     -2.3333322245     -0.9106805959
C     2.510480547     3.10402787     -2.0000043139
C     2.6532819243     3.5927669362     -0.6437279855
C     3.4466890385     2.9178787405     0.2618182148
C     3.2018349332     1.9653742959     -2.3977590042
C     1.1939930647     1.10795765     -3.5716565935
C     0.4623818017     2.3120916518     -3.1534212362
C     1.1495856729     3.2803436064     -2.3892282505
C     2.5470736193     0.9793106249     -3.1916752385


