86

 C     1.7909552783     0.006357082     -3.7344308638
C     2.3066651099     -1.1920262347     -3.1791728516
C     3.5128838813     -1.074687064     -2.4287851723
C     3.8418958567     -2.0237015661     -1.4338587503
C     2.9984190856     -3.117254555     -1.21833364
C     0.4318320768     0.1356295377     -4.0527477329
C     -0.5339861064     -0.8738462512     -3.7381175922
C     -0.0701249397     -2.1023437427     -3.1443861887
C     1.3656422634     -2.278524553     -2.9051827623
C     1.7850158173     -3.2538716327     -1.9601647724
C     -2.3796723441     -2.5325234873     -2.3407064302
C     -1.0319455089     -2.9347314389     -2.404719331
C     -2.8065396519     -1.2559481222     -2.8497136385
C     -1.9086704761     -0.4193156356     -3.5406331911
C     -2.2086909286     0.9750253523     -3.479808443
C     4.1045802752     -1.7066022324     0.9836432845
C     3.2191655877     -2.8377251582     1.2118787293
C     4.4201235346     -1.315627089     -0.3032891834
C     2.7230014525     -3.5469530474     0.1382418097
C     1.3692422776     -4.028725461     0.2007538958
C     0.5536512093     -3.7972294264     1.3435542259
C     -0.8267319263     -3.9198423828     1.1288615208
C     -0.5605059758     -3.8051430436     -1.3289395396
C     0.819830674     -3.926907028     -1.113510089
C     -1.3761714206     -4.0294399749     -0.1847529271
C     3.1615980592     1.5152453576     2.5521940566
C     3.9480647003     0.6704865686     1.7255438507
C     3.8374667098     -0.717871503     1.9999133327
C     2.8005182242     -1.2395933216     2.8488545736
C     1.9029250723     -0.3984956045     3.53468595
C     2.2034020176     0.9953500156     3.4654137138
C     -0.112106378     1.5718836035     3.9074816831
C     1.1466471035     1.9735875743     3.5828665002
C     1.0253729189     -2.9204687792     2.4140400273
C     2.373231097     -2.5190967889     2.3475955754
C     -1.7916966678     -3.241378968     1.9714320496
C     -1.3719980879     -2.2604538502     2.910515497
C     0.0638254548     -2.0832936939     3.1486490885
C     0.5280893319     -0.8513739859     3.7349228897
C     -0.4373897821     0.1603104313     4.0434327577
C     4.2643745246     1.1035504647     0.3527903488
C     4.4848213071     0.0950889071     -0.6392276686
C     2.6490859755     2.7912041438     2.0572792235
C     2.9014831679     3.1576036777     0.7510441989
C     3.7342547251     2.3395826926     -0.098384249
C     1.3734322354     3.0492759564     2.6292825839
C     1.8497953227     3.7392967766     -0.0353812995
C     0.5469406605     3.9215405004     0.4705709485
C     0.2977442611     3.5831102035     1.8745354853
C     -2.1037283395     3.3726722296     1.3852596004
C     -1.0565365646     3.2404237138     2.3122047378
C     -1.2462283261     2.2701957948     3.3578387285
C     3.2513957629     2.5003713769     -1.439135658
C     3.3389957344     1.4303333544     -2.3748250223
C     3.9797880249     0.2369775194     -1.9598856246
C     2.3079443695     1.3228556494     -3.338687443
C     2.0992351363     3.3635025081     -1.4140925457
C     1.0519985416     3.2259757675     -2.3402187593
C     1.2413657227     2.2493667188     -3.3799514929
C     -1.1516109373     1.952181135     -3.6031837479
C     0.1070102556     1.5481066487     -3.9253516468
C     -1.8541675767     3.7400198968     0.0042977819
C     -0.5512555808     3.9187671937     -0.502746764
C     -0.3021722632     3.5717494855     -1.9046365256
C     -1.378036395     3.0337012245     -2.6561297603
C     -3.7390870289     2.3413310407     0.075784585
C     -2.9060487679     3.1539120338     -0.7785859218
C     -2.6537784368     2.7795178935     -2.082574554
C     -4.4903973989     0.1004042898     0.6302177438
C     -4.2696204373     1.1027622883     -0.3678930429
C     -2.3131106641     1.3438014803     3.3221891559
C     -3.9853134141     0.2501316862     1.949993778
C     -3.3441280502     1.4457673051     2.3576919648
C     -3.2561741101     2.5100847275     1.4155352866
C     -3.005052315     -3.108858036     1.2287859314
C     -3.8481709538     -2.0137427214     1.4376757922
C     -3.5188415017     -1.0588220741     2.4268283078
C     -2.3126604004     -1.1720053744     3.1779159795
C     -1.7965560482     0.029554748     3.7259033607
C     -4.1107567895     -1.7112117586     -0.981706922
C     -3.2257105178     -2.8439861964     -1.2030761899
C     -2.7297775623     -3.5468549354     -0.1251672704
C     -4.4261687281     -1.3123410023     0.3028349915
C     -3.1667130196     1.5007569522     -2.5697543987
C     -3.953457861     0.6612818751     -1.7379979897
C     -3.843320614     -0.7287476622     -2.0039479306


