86

 C     2.6013058766     -1.5887419417     2.6272574528
C     2.2767451096     -0.2326768472     3.1006486922
C     3.6317165684     -1.7294720565     1.678088224
C     3.0907095685     0.8341292503     2.6667184055
C     2.5566137304     2.1567209462     2.4943271508
C     1.2084317105     2.4522920222     2.7600011419
C     0.3697073111     1.413722869     3.3557562968
C     0.9292814085     0.0950842111     3.5363687959
C     0.0293041882     -1.0013945389     3.7162424754
C     -1.6372691348     2.7260354849     2.7183000898
C     -1.0886987841     1.5798552553     3.3491489837
C     -0.7980425195     3.6272586089     1.9519615075
C     0.5966111083     3.5261864642     1.9767781604
C     1.2722841244     4.0375593471     0.829264258
C     3.4942696242     -2.6735484938     0.5657656943
C     0.3554110057     -2.3501330074     3.27254302
C     1.5777714365     -2.6392862449     2.6644300678
C     1.5767367459     -3.6755449076     1.6665562291
C     2.505022553     -3.6068327878     0.5677705673
C     -0.8654471921     -2.9882241136     2.8674296736
C     -0.8960861628     -3.8435472947     1.7197494833
C     0.3647327797     -4.1837755965     1.1401582286
C     -2.0213227252     -3.7799827675     0.856789941
C     -1.9298388481     -2.0732890883     3.1159822701
C     -3.723813593     -0.7682932135     2.1551406915
C     -3.0539901115     -2.0157354237     2.2601243495
C     -3.092494751     -2.8765443186     1.120615658
C     -1.9651783394     0.421529089     3.4752117605
C     -1.363790775     -0.8516618207     3.6720635396
C     -3.2509556586     0.424698833     2.8689322822
C     0.9923162029     -3.01047888     -2.7312385992
C     2.0739280368     -3.1526655313     -1.8436389142
C     1.8192509939     -3.9304201132     -0.6645060976
C     0.5158922382     -4.3550350824     -0.3090259984
C     -1.8658658116     -3.8885511265     -0.5876362915
C     -0.5879777443     -4.1292630839     -1.1735963543
C     -0.3202145985     -3.5204224666     -2.4265391549
C     3.0917650994     -2.1050229848     -1.8218940352
C     3.8961790992     -2.0038867424     -0.6570294884
C     4.5150914456     -0.7785586504     -0.2709705474
C     2.9083132279     -0.8915361775     -2.6275296443
C     3.6024773953     0.2773005036     -2.26421979
C     4.4387575051     0.3343595771     -1.0980751471
C     -0.5518529952     -1.6692057886     -3.8025445035
C     0.8441069701     -1.8253002403     -3.5562525309
C     1.6985062981     -0.7146049384     -3.4215146604
C     -1.0867030307     -0.4179672864     -4.0015909501
C     -0.2356729935     0.7338174705     -3.9264725175
C     1.1262114386     0.624833935     -3.6073807171
C     -2.7964537324     -3.005059356     -1.1880820175
C     -2.5029773595     -2.3040968075     -2.3986061836
C     -1.2891614817     -2.6502612459     -3.0407152177
C     4.1487301025     0.6462427366     1.701263918
C     4.2155094628     1.8162407604     0.8538686873
C     4.3644979629     -0.6124084191     1.1716708897
C     4.3531176974     1.6635316951     -0.5279792389
C     3.5407543868     2.4600675299     -1.4196063437
C     3.2760691448     2.7792325639     1.3840176146
C     2.6194692307     3.6405043374     0.5290708287
C     2.732138526     3.4701346538     -0.9080230494
C     1.7470561216     1.7922872628     -2.9933113866
C     3.0359852267     1.6135107842     -2.4589102367
C     1.4437248966     3.7105677619     -1.4707715667
C     0.9206432476     2.9047805741     -2.5030737061
C     -2.3780139888     1.3299788908     -3.2572562897
C     -1.0515782287     1.8442376762     -3.4602739918
C     -0.5321702476     2.8689535445     -2.6596640335
C     -3.2009353798     1.8916453435     -2.3042588193
C     -2.7495861726     3.0304862764     -1.5527607371
C     -1.4206431598     3.4964932422     -1.6670908959
C     -3.9069206068     -0.3658347449     -1.5330961767
C     -3.0698759971     -0.9618148606     -2.5851522735
C     -2.3852917067     -0.0886054473     -3.4633829217
C     -4.0210123301     1.0418279836     -1.4833420425
C     -4.3763291211     1.0818927999     0.9465215744
C     -4.3384836239     -0.3623038263     0.9423076582
C     -4.1245431507     -1.1015630871     -0.2757209122
C     -3.5860354405     -2.3919106276     -0.1394142458
C     -4.2316347551     1.7657485087     -0.2383540797
C     -2.8339114652     3.4552513361     0.8678320027
C     -2.9315607183     2.7101855332     2.1058410228
C     -3.7104210469     1.5545225963     2.1511193667
C     -3.4474812734     2.992413097     -0.2819501937
C     0.5737530001     4.1928495542     -0.4035098032
C     -0.8267596292     4.0900939952     -0.4760806155
C     -1.5072334221     4.0094970729     0.7707842661


