86

 C     2.2678680097     -1.3804871495     -3.1829689624
C     2.8556902598     -0.1140481134     -2.9455429258
C     3.9149168059     -0.0774598906     -1.9892211551
C     4.2297064165     1.1200236128     -1.3034357588
C     3.5335309718     2.2893280728     -1.6031455199
C     0.9598617006     -1.4995712747     -3.6688842912
C     0.1028096514     -0.3638361239     -3.8411039148
C     0.6445365448     0.9505916603     -3.5969122817
C     2.0443050502     1.0765051513     -3.1917090524
C     2.4632491576     2.2750431686     -2.5494247227
C     -1.6694900435     1.8120779372     -3.3564163315
C     -0.2839754953     2.0608878689     -3.3263711513
C     -2.1841306518     0.4744861244     -3.4787295642
C     -1.328453294     -0.6094412241     -3.7196896492
C     -1.8039153494     -1.8750856545     -3.2530291383
C     4.1002544266     1.6105004771     1.0987668107
C     3.4156320574     2.8646299351     0.786068902
C     4.5186969533     0.7823750459     0.0829772096
C     3.1604849354     3.1957087299     -0.5302893326
C     1.8967404942     3.7943097587     -0.8625822172
C     0.9214026026     4.0683743355     0.1366045158
C     -0.4020623181     4.2008706661     -0.32153644
C     0.1586955889     3.2033754712     -2.526058357
C     1.5039724325     3.2761622669     -2.140162801
C     -0.7624206618     3.8757529527     -1.6689264462
C     1.4883271387     1.6420961598     3.5228436375
C     3.5103110373     1.0615744482     2.3029033423
C     2.5705872499     2.0396128076     2.7728160271
C     1.1427176217     3.6323445349     1.5107041206
C     2.4185994993     3.0965411284     1.8090848445
C     0.2125675278     2.2744251456     3.3451451643
C     -0.0137688074     3.2117400206     2.3212521812
C     1.2883796397     0.2555258604     3.8197263787
C     2.0999058897     -0.7495419802     3.2529276293
C     3.2639834328     -0.3258373521     2.4553508739
C     3.7837836789     -1.2099535304     1.4104955143
C     4.3829806267     -0.6455345562     0.2349617224
C     3.1990015657     -2.482735687     1.2723577008
C     0.0707990921     -2.2825645852     3.3332382338
C     1.4893655728     -2.0642336988     3.0474127448
C     2.1167165371     -2.9227554982     2.1134573705
C     -0.6062421787     -3.3237093958     2.6408346435
C     0.0326485312     -4.0716394616     1.6049195144
C     1.3721365852     -3.8946149975     1.3618541629
C     -0.1291113266     0.0741779156     4.0289861121
C     -2.1390474852     -1.1172782477     3.4959694373
C     -0.7520053833     -1.1720154502     3.8058927437
C     -1.5435544711     3.9314770966     0.5323392877
C     -1.3811964561     3.3220958277     1.7965902474
C     -2.4322681422     2.4074997551     2.2608707838
C     -2.0991929339     1.3584565361     3.2265239832
C     -0.7884944254     1.3114552552     3.7421753304
C     -2.7979839892     0.1216412669     3.2169890362
C     3.0465935798     -3.1068397443     -0.0226472792
C     3.4113341484     -2.4040083668     -1.2024675784
C     4.1110305864     -1.1854873455     -1.0552753307
C     2.5653192427     -2.5480574532     -2.3341131792
C     1.4288101762     -3.3805273456     -2.3015572023
C     1.0152689246     -4.0515034707     -1.10171307
C     1.8893647901     -3.9459489281     0.0074530861
C     -0.8924187501     -4.2558932509     0.4912375262
C     -0.4290314808     -4.2047629212     -0.8452681781
C     -1.3551269385     -3.6795456286     -1.7903235866
C     -0.8848460182     -2.9448505768     -2.9535678473
C     0.447059841     -2.7748766987     -3.1852419384
C     -2.1383159147     -3.6766710912     0.880293471
C     -3.7713302028     -1.8348201346     0.3974109329
C     -2.9805606685     -2.9890527226     -0.0458349513
C     -2.5752355671     -3.0690058153     -1.3992581824
C     -4.408288189     0.5223344025     -0.0447385084
C     -4.1235016234     -0.7713230563     -0.5513004447
C     -4.1587855594     0.8534637445     1.3345628715
C     -3.8042484577     -0.1386969247     2.2134541268
C     -3.6970796377     -1.4978203675     1.7686547345
C     -2.7423387633     -2.1259608616     2.6552966453
C     -1.9860273447     -3.1879692613     2.2374330861
C     -2.6540980715     3.6212775409     -0.3235105694
C     -3.6305532599     2.7365959307     0.1049336491
C     -3.5455634129     2.1692188948     1.4135311129
C     -3.6348000706     1.6401247237     -2.0903550315
C     -2.6048665378     2.5575522849     -2.5344716775
C     -2.1570014632     3.548727883     -1.6827011236
C     -4.1449422955     1.7238064054     -0.8067415552
C     -2.8696661123     -1.9749650416     -2.3273035638
C     -3.6237993297     -0.8470064697     -1.9269560205
C     -3.3575974929     0.3467885434     -2.651674617


