60 

C     1.3685675    4.5164412   -0.1749973 
C     0.9761670    3.9891108   -1.4832881 
C    -0.4195569    3.9763604   -1.5752670 
C     0.1706831    4.4599603    0.6363238 
C    -0.9415552    4.3076136   -0.2250079 
C     0.3483156    3.4878105    1.7068111 
C     2.2737835    3.5892425    0.3721814 
C     1.7310967    3.0648420    1.6182959 
C     1.6661076    2.7438842   -1.7228580 
C     2.5861117    2.5771429   -0.6123249 
C     0.9846086    1.5848860   -2.2366250 
C    -1.1295618    2.8359039   -2.0336156 
C    -0.4663809    1.6176152   -2.4157303 
C    -1.9740647    3.4160284    0.0851127 
C    -2.2880969    2.7087426   -1.1645338 
C    -0.6664057    2.5196738    2.0208248 
C    -1.9289228    2.6113800    1.2906093 
C    -0.2630666    1.1855091    2.5288129 
C     2.0926899    1.7874721    2.0055933 
C     1.1192278    0.8795890    2.5811745 
C     2.9894352    1.2930127   -0.2054879 
C     2.9834231    0.9941245    1.1975540 
C     1.6231144    0.2992052   -2.0638245 
C     2.7518349    0.2051954   -1.1331397 
C     0.9171762   -0.9282032   -2.4214554 
C    -1.2255669    0.3511704   -2.3624879 
C    -0.5385436   -0.9388439   -2.4162762 
C    -3.0160706    1.5588427   -1.1495862 
C    -2.5511828    0.3791553   -1.8564096 
C    -2.7852820    1.4818481    1.3095699 
C    -3.5094262    1.1092443    0.1187345 
C    -1.1597089    0.0229758    2.4989576 
C    -2.4658780    0.2491169    1.9937833 
C    -0.6293557   -1.3684207    2.5030598 
C     1.6176671   -0.4699214    2.4257476 
C     2.8075858   -0.3668265    1.6021058 
C     0.8027241   -1.6230933    2.3830002 
C     3.1665221   -1.0719600   -0.7048745 
C     3.1131040   -1.3914816    0.7373418 
C     1.6143207   -2.1751616   -2.2492551 
C     2.7733585   -2.2148651   -1.3934834 
C     0.8988455   -3.3930317   -2.0580848 
C    -1.2423432   -2.1649796   -2.0095098 
C    -0.4982649   -3.3935747   -1.8585347 
C    -3.0919248   -0.7710812   -1.1524566 
C    -3.6793480   -0.2948426    0.0686034 
C    -3.1787209   -0.8278080    1.2995128 
C    -2.4486624   -2.0240840   -1.1995091 
C    -1.4827212   -2.4236668    2.0545046 
C    -2.6683339   -2.0902623    1.2803072 
C    -2.5607321   -2.8194997    0.0120246 
C    -0.7665554   -4.2771806   -0.7202693 
C    -0.9618346   -3.6218582    1.5097249 
C    -1.6866380   -3.8873979    0.2359065 
C     1.3418227   -2.8409691    1.7112490 
C     2.5123413   -2.6862596    0.8861949 
C     2.5482437   -3.2853671   -0.4315775 
C     1.5232512   -4.1057097   -0.9109972 
C     0.4121166   -3.8681324    1.3004769 
C     0.5104597   -4.4786174   -0.0326310 
