60 

C    -1.9632869   -3.8978184   -0.5260790 
C    -0.9549425   -4.0822459    0.4560329 
C    -1.2298669   -3.2142582    1.5840921 
C    -2.8383707   -2.8648945   -0.0910675 
C    -2.4352233   -2.4657309    1.2445734 
C    -2.8108120   -1.8423721   -1.0826973 
C    -1.3150838   -3.4926124   -1.7579508 
C    -1.8216251   -2.2125045   -2.1151286 
C     0.3350345   -4.0434930   -0.1813273 
C     0.1035154   -3.6659799   -1.5978460 
C     1.3990109   -3.4637280    0.5033392 
C    -0.1571449   -2.5525236    2.2482661 
C     1.1893860   -2.7623502    1.7627527 
C    -0.4290320   -1.2818234    2.8454556 
C    -2.5937861   -1.1240515    1.6439333 
C    -1.6585939   -0.6132532    2.6043519 
C    -3.0013116   -0.4920543   -0.7400833 
C    -3.1158490   -0.1556549    0.6776489 
C    -2.4942074    0.5226387   -1.6609378 
C    -0.9567492   -1.1917804   -2.6252459 
C    -1.3259266    0.2065373   -2.4718827 
C     0.9527042   -2.7317973   -2.1793940 
C     0.4239470   -1.5163599   -2.7695620 
C     2.4400714   -2.7462671   -0.2148687 
C     2.2142979   -2.3712146   -1.5399461 
C     2.1822340   -1.7370613    1.8839495 
C     3.0231546   -1.7802926    0.6937148 
C     0.5993917   -0.2574829    3.0150915 
C     1.9198868   -0.4736341    2.5384272 
C    -1.4186995    0.8133216    2.7584765 
C    -0.0099858    1.0412826    2.9787134 
C    -3.0818435    1.2150588    1.0354953 
C    -2.1820108    1.7192164    2.0702778 
C    -2.7599703    1.8794739   -1.3246707 
C    -3.1121363    2.1981924    0.0350669 
C    -1.9259520    2.9213380   -1.8009892 
C    -0.3162187    1.2447950   -2.6637528 
C    -0.6751904    2.6098483   -2.3825048 
C     1.4308757   -0.4885164   -2.6660313 
C     2.5722654   -1.0331825   -1.9739986 
C     1.0993543    0.8915199   -2.5881618 
C     3.6079675   -0.6150545    0.2105307 
C     3.3561716   -0.2099453   -1.1687338 
C     2.6388471    0.6887844    2.1159052 
C     3.5628441    0.5747063    1.0102355 
C     0.6384207    2.1777925    2.3949663 
C     2.0010282    1.9846490    2.0347744 
C    -1.6052133    3.0002291    1.6191466 
C    -2.3491936    3.3718878    0.4591410 
C    -1.7075649    3.8849088   -0.6839993 
C    -0.1793931    3.1939401    1.6798076 
C     0.3028963    3.4899321   -1.7767231 
C    -0.3520064    4.1596953   -0.6196991 
C     0.4219369    3.8586593    0.5401662 
C     2.0497761    1.7780780   -1.9010129 
C     3.1302300    1.2131041   -1.1766548 
C     3.4096833    1.6984466    0.1691410 
C     2.5247452    2.6158718    0.8196508 
C     1.5470087    3.0383187   -1.3959422 
C     1.7005053    3.3877114    0.0437675 
