60 

C    -2.1953720   -3.6511515    1.0532463 
C    -0.8598998   -3.7443415    1.5474202 
C    -0.5562129   -2.5755329    2.3452108 
C    -2.7221731   -2.4066535    1.4964117 
C    -1.7453367   -1.7360655    2.3243692 
C    -3.1865831   -1.6418484    0.3827511 
C    -2.0511629   -3.5189632   -0.3793422 
C    -2.6698570   -2.3134343   -0.8159136 
C     0.0375011   -4.0553538    0.4760041 
C    -0.6920772   -3.7613272   -0.7717646 
C     1.3687297   -3.6649004    0.5926141 
C     0.7491106   -1.9790508    2.3160981 
C     1.7643832   -2.6333131    1.5605928 
C     0.8663362   -0.5551536    2.5770227 
C    -1.6467604   -0.3318113    2.3443747 
C    -0.3614099    0.2296514    2.7291192 
C    -3.2467603   -0.2442866    0.4552293 
C    -2.5717183    0.4750085    1.5253310 
C    -3.3387545    0.3937920   -0.8264976 
C    -2.0721985   -1.5170927   -1.8456505 
C    -2.5785367   -0.2111163   -1.9406339 
C    -0.0528470   -2.9908868   -1.8037869 
C    -0.7234667   -1.7866984   -2.3253191 
C     2.0858847   -3.4268389   -0.5983021 
C     1.3837046   -3.0356159   -1.8017428 
C     2.8487595   -1.8732835    0.9678853 
C     3.1201964   -2.4378513   -0.3300903 
C     2.0881972    0.1355083    2.1872095 
C     2.9587719   -0.4778073    1.1759261 
C     2.1315853    1.5491435    2.3220818 
C    -0.2790919    1.6436439    2.7618368 
C     0.9753061    2.2744568    2.7432077 
C    -2.3469866    1.9029202    1.3650567 
C    -1.2486709    2.4898460    2.0550685 
C    -3.2647617    1.7672811   -0.9375171 
C    -2.7968264    2.5786650    0.1535847 
C    -1.8817782    0.8573097   -2.6035092 
C    -2.4480114    2.0795516   -2.1235725 
C     0.0663877   -0.6341565   -2.7628040 
C    -0.4779093    0.7262030   -2.7963023 
C     2.1222138   -1.9540346   -2.3526505 
C     3.2275032   -1.6092452   -1.4436550 
C     1.4938316   -0.7478920   -2.7190607 
C     3.3387986    0.3550056    0.0261908 
C     3.2617975   -0.2090064   -1.2834902 
C     2.2913194    0.3611680   -2.2056249 
C     2.7446644    2.3576929    1.2986643 
C     3.0704712    1.7469365    0.0763434 
C     0.8390024    3.5019393    1.9506704 
C    -0.5139267    3.6230938    1.5223586 
C     1.8966176    3.5209485    1.0362931 
C    -1.9593298    3.5872408   -0.4280446 
C    -1.6560861    3.1564555   -1.8070869 
C    -0.7580867    3.9947005    0.1659887 
C     0.3730086    1.8959979   -2.4576167 
C     1.7459581    1.6453647   -2.0204152 
C     2.3343184    2.4326015   -0.9866839 
C     1.6217000    3.5354629   -0.3818432 
C    -0.2350579    3.0921610   -1.9608614 
C     0.3315919    3.8149632   -0.8243798 
