60 

C     0.6705101   -4.3944520    0.3037841 
C     0.0276217   -4.2012173   -0.9358053 
C    -1.3757345   -3.8461448   -0.6561308 
C    -0.2695898   -4.0093454    1.3833652 
C    -1.5098366   -3.6959361    0.7765251 
C     0.3811473   -3.0399644    2.2178576 
C     1.8831802   -3.7440289    0.5355285 
C     1.7448219   -2.9840031    1.7989754 
C     2.4645889   -2.8712368   -0.4252485 
C     0.5411651   -3.2795179   -1.8900846 
C     1.7813790   -2.5732424   -1.6617892 
C    -1.7822682   -2.8203526   -1.5168805 
C    -0.6183194   -2.5109072   -2.3600944 
C    -2.6354144   -1.7452395   -1.0647350 
C    -2.2217232   -2.5797849    1.2417571 
C    -2.9563644   -1.7430693    0.3267938 
C    -0.2755546   -1.7937688    2.5849067 
C    -1.6539221   -1.6915804    2.2399424 
C     0.4926937   -0.5470003    2.6768651 
C     2.4091323   -1.7691449    1.6757824 
C     3.0160644   -1.7572163    0.3395760 
C     1.8672867   -0.5478831    2.2120202 
C     3.2798121   -0.5593950   -0.2544838 
C     1.9263033   -1.2096526   -2.2223577 
C     2.8108549   -0.2801678   -1.6059458 
C    -0.4725849   -1.2498338   -2.8720339 
C     0.8263517   -0.6117682   -2.9152455 
C    -2.5731274   -0.4476993   -1.7655976 
C    -1.4896591   -0.2281260   -2.6890072 
C    -3.1038336    0.7056555   -1.1470692 
C    -3.2000625   -0.4899736    0.9983785 
C    -2.3148300   -0.4144296    2.1293473 
C    -3.4769090    0.6548540    0.2638366 
C    -0.2242208    0.7408745    2.7465135 
C    -1.6627603    0.8007434    2.4729123 
C     0.5144644    1.9376941    2.5852305 
C     2.4846130    0.6762659    1.7443284 
C     3.2154129    0.6544974    0.5127242 
C     1.8772210    1.9188886    2.0961297 
C     2.6437794    1.1409631   -1.6966748 
C     3.0749069    1.7342430   -0.4310308 
C     0.5939340    0.7963262   -2.9251119 
C    -0.8489356    1.0314917   -2.8106190 
C     1.5202721    1.7198291   -2.3727506 
C    -2.5669114    2.0401841   -1.4022253 
C    -1.3606038    2.2090976   -2.1770730 
C    -3.1514356    1.8972185    0.8421500 
C    -2.2279925    2.0020594    1.9089885 
C    -2.7219476    2.8106933   -0.2150207 
C    -0.0960445    3.1808631    2.0828951 
C    -1.4028008    3.1765088    1.6387453 
C    -1.7138148    3.6625755    0.2710636 
C     2.1191037    3.0917958    1.3262571 
C     2.5989904    2.9773935   -0.0228355 
C     0.9030812    3.8753133    1.2981002 
C     1.0182847    2.9955191   -1.9095829 
C    -0.4405637    3.2280315   -1.7920643 
C    -0.6494592    4.0105448   -0.5962138 
C     1.6710437    3.6943644   -0.8754662 
C     0.6392035    4.2715928   -0.0221025 
