60 

C     1.3737868    4.0749457    0.3319638 
C     0.0187327    4.1388041    0.5866026 
C    -0.7207754    4.0162346   -0.6896923 
C     1.5227364    3.8187152   -1.1187967 
C     0.2197878    3.5730231   -1.6764404 
C     2.5170810    2.8688255   -1.2575893 
C     2.1749223    3.1132475    1.0399758 
C     3.0654267    2.5518979    0.0646631 
C     1.5371489    2.2206575    1.9999595 
C    -0.6478335    3.3282314    1.5595460 
C     0.0813927    2.2920776    2.2545361 
C    -1.9259007    3.3574690   -0.4366921 
C    -1.9552018    3.0326376    1.0091525 
C    -2.3471502    2.3671619   -1.3345044 
C    -0.0487701    2.3244328   -2.3725150 
C    -1.3914380    1.8444979   -2.2805028 
C     2.3003342    1.6217847   -1.9470294 
C     1.0216444    1.3156062   -2.5100145 
C     3.4045058    1.1937315    0.0679541 
C     3.0187800    0.6003078   -1.2183340 
C     2.1345975    0.9459883    2.1557233 
C     3.1332488    0.4455458    1.2141531 
C     1.4205371   -0.2029184    2.6544425 
C    -0.6561314    1.0959986    2.6807263 
C     0.0243335   -0.1961939    2.8643959 
C    -2.6637182    1.9472191    1.4468256 
C    -2.0611686    1.0386194    2.4098369 
C    -3.1768159    1.2670231   -0.8807910 
C    -3.4460751    1.1293575    0.5040417 
C    -1.7003988    0.4524655   -2.4653145 
C    -2.8532202    0.0957561   -1.6383829 
C     0.7029746   -0.0981026   -2.6846384 
C    -0.6983883   -0.4873787   -2.7762176 
C     2.7104015   -0.7589588   -1.3314519 
C     1.6642790   -1.1262455   -2.2791429 
C     3.0059124   -0.9632393    1.1074842 
C     2.0779260   -1.3890418    2.1501598 
C     2.9506577   -1.6148446   -0.1571641 
C     1.4328620   -2.6120008    2.0828976 
C    -0.6907508   -1.4907254    2.6794807 
C     0.0079675   -2.6643556    2.2988842 
C    -2.7253585   -0.2082335    2.2536042 
C    -3.5524613   -0.1584151    1.0663471 
C    -2.0604829   -1.4477018    2.2829487 
C    -2.9684671   -1.2176147   -1.0740046 
C    -3.3076071   -1.3473289    0.3195881 
C    -2.5221139   -2.2417072    1.1464719 
C    -1.0701409   -1.8627972   -2.5765692 
C    -2.1434168   -2.2255632   -1.6200771 
C     1.2662741   -2.5001953   -2.2914609 
C    -0.1024855   -2.8455883   -2.5308676 
C     2.4320869   -2.9525380   -0.1627256 
C     1.7726574   -3.4931627    1.0150757 
C     1.7438543   -3.4236141   -1.2978825 
C    -0.5312081   -3.6283269    1.3213533 
C    -1.7279312   -3.2743340    0.5952935 
C    -1.7006134   -3.3592900   -0.8583976 
C    -0.5196521   -3.8484085   -1.5120107 
C     0.5850106   -4.1932700    0.6236166 
C     0.5938152   -4.2401682   -0.8084944 
