60 

C     0.1294921   -4.3948504   -0.1165665 
C     1.0973368   -3.9952359    0.7790322 
C     2.1784193   -3.3139085    0.0419460 
C     0.5823043   -3.9415636   -1.4672908 
C     1.7910220   -3.1441286   -1.3195533 
C    -0.5218825   -3.4150339   -2.0919132 
C    -1.2523675   -3.9897398    0.0647309 
C    -1.6989980   -3.4788803   -1.1966838 
C    -1.5912048   -3.2392642    1.2141803 
C     0.7868127   -3.1776566    1.9327023 
C    -0.5540250   -2.8419544    2.1721965 
C     2.5964152   -2.2175887    0.7951087 
C     1.7571292   -2.1188255    1.9983920 
C     3.0461600   -1.0401851    0.1396645 
C     1.8914560   -1.8374417   -1.9205409 
C     2.6953547   -0.8097270   -1.2508821 
C    -0.4772627   -2.1237327   -2.7051742 
C     0.7517151   -1.3842532   -2.7221626 
C    -2.3711918   -2.2524517   -1.3171927 
C    -1.6974407   -1.4539623   -2.3500659 
C    -2.4992641   -2.1173098    1.0975097 
C    -2.8780729   -1.5582652   -0.1672140 
C    -0.8844502   -1.5223010    2.6876187 
C    -2.1859224   -1.1973405    2.1692332 
C     1.4467366   -0.8304011    2.5286341 
C     0.0772156   -0.4864572    2.8798540 
C     3.2075511    0.0680905    1.0197653 
C     2.3223647    0.2103634    2.1673947 
C     3.4631918    1.3436535    0.5155788 
C     2.6505451    0.5898487   -1.7052516 
C     3.1703052    1.6407833   -0.8530810 
C     0.5953815    0.0024755   -2.9542202 
C     1.5984357    0.9708341   -2.5863537 
C    -1.8192219   -0.0500890   -2.3857492 
C    -0.6915586    0.6386275   -2.9206169 
C    -3.1716544   -0.1274494   -0.2753670 
C    -2.7167391    0.6310761   -1.4517486 
C    -2.6037687    0.0998747    2.1217435 
C    -3.3190605    0.5973899    0.9520585 
C    -0.3515729    0.9247032    2.8232646 
C    -1.7464115    1.1674797    2.6215121 
C     1.9531452    1.6149378    2.2684478 
C     2.8045272    2.3337807    1.3761387 
C     0.5853655    1.9909422    2.4499759 
C     2.5639102    2.9431956   -0.8435199 
C     2.2930855    3.3281747    0.5525541 
C     0.9457587    2.2656593   -2.5004380 
C    -0.4767250    2.0385133   -2.6642180 
C     1.3982546    3.2335507   -1.5854037 
C    -2.5826157    2.0543379   -1.3619608 
C    -1.4137431    2.7403618   -1.9230929 
C    -3.1984830    2.0018397    0.9974330 
C    -2.2007931    2.3624810    2.0220255 
C    -2.8956914    2.7350471   -0.1468404 
C     0.1029771    3.1874995    1.7019865 
C     0.9450028    3.7504476    0.6713293 
C     0.4280390    3.8761319   -0.6975927 
C    -0.9401274    3.7249936   -0.9356883 
C    -1.3049050    3.3278952    1.4826587 
C    -1.8102568    3.6650074    0.1717128 
