60 

C    -2.1929817   -3.6846234    0.3377387 
C    -1.0181358   -3.9689475    1.0462142 
C     0.0326382   -4.1678533    0.0645525 
C    -1.8275801   -3.4629781   -1.1019437 
C    -0.4473896   -3.6817179   -1.2253107 
C    -2.4301060   -2.2385500   -1.5314455 
C    -3.0024009   -2.6389224    0.7381305 
C    -3.2920603   -1.8335596   -0.4603738 
C    -2.5718201   -1.7138239    1.7456024 
C    -0.5169990   -3.0380101    2.0225330 
C    -1.2642074   -1.8472423    2.3564305 
C     1.2379266   -3.6812071    0.5765458 
C     0.9202409   -2.9374746    1.8018667 
C     2.1809452   -3.1641934   -0.3284581 
C     0.3597459   -2.7474742   -1.9950917 
C     1.7332859   -2.6873288   -1.6531997 
C    -1.6840184   -1.2280799   -2.2461807 
C    -0.2919587   -1.5434732   -2.5737457 
C    -2.1044370    0.1646925   -2.1152226 
C    -3.3937007   -0.4964412   -0.1075816 
C    -2.9833516   -0.4039383    1.2932112 
C    -3.0054572    0.5070575   -1.0253880 
C    -2.3992688    0.7730304    1.7761616 
C    -0.5354772   -0.6225657    2.7237350 
C    -1.2087751    0.6775138    2.6095577 
C     1.6432163   -1.7769285    2.1426767 
C     0.9215314   -0.6463750    2.7358210 
C     3.0874336   -2.2186941    0.1630186 
C     2.8376890   -1.5050924    1.3706447 
C     2.5346251   -1.5146540   -1.9672289 
C     3.4035442   -1.2356969   -0.8751813 
C     0.5439438   -0.4585471   -2.9413239 
C     1.9391600   -0.4271758   -2.5895552 
C    -1.2455348    1.2505155   -2.6078219 
C     0.0765453    0.9026238   -2.9714637 
C    -1.4563794    2.6227622   -2.1872960 
C    -2.9496800    1.8009316   -0.4401128 
C    -2.6284352    1.9370452    0.9725363 
C    -2.3765917    2.8887680   -1.1235567 
C    -1.8592794    3.1599987    1.1315262 
C    -1.7657665    3.7953880   -0.1611594 
C    -0.4637073    1.8871276    2.7425937 
C    -0.7472951    3.1110416    1.9657355 
C     1.6202209    0.5943727    2.7736274 
C     0.9291443    1.8049321    2.8849917 
C     3.2779184   -0.1423998    1.1279959 
C     3.5221153    0.0470308   -0.3112148 
C     2.7328282    0.8710937    1.8572908 
C     2.2773516    0.9332624   -2.1927430 
C     1.1974720    1.7663820   -2.6069887 
C     2.9883062    1.2021275   -0.9747785 
C    -0.3400118    3.5072520   -1.9677413 
C    -0.5192977    4.1657916   -0.6759614 
C     0.9749947    3.0012623   -1.9913159 
C     0.5404502    3.6412423    1.4708630 
C     1.5513273    2.8325386    2.0270120 
C     2.5539624    2.2048827    1.2702656 
C     2.5759381    2.3624187   -0.1698786 
C     0.6754083    4.0018558    0.1052842 
C     1.6521953    3.2990270   -0.7148996 
