60 

C     3.7527941    0.0238123   -0.7333302 
C     3.1928662   -1.1747857   -1.2277835 
C     3.0504607   -2.0802174   -0.0818092 
C     3.7527941   -0.0238123    0.7333302 
C     3.3150433   -1.3037528    1.1402165 
C     3.1928662    1.1747857    1.2277835 
C     3.3150433    1.3037528   -1.1402165 
C     3.0504607    2.0802174    0.0818092 
C     2.4029579    1.3748600   -2.2031404 
C     2.1690571   -1.1284618   -2.2446537 
C     1.8442462    0.1647537   -2.7575523 
C     1.1284618   -2.1690571   -2.2446537 
C     2.0802174   -3.0504607   -0.0818092 
C     1.1747857   -3.1928662   -1.2277835 
C     1.3037528   -3.3150433    1.1402165 
C     2.4029579   -1.3748600    2.2031404 
C     1.3748600   -2.4029579    2.2031404 
C     2.1690571    1.1284618    2.2446537 
C     1.8442462   -0.1647537    2.7575523 
C     1.1284618    2.1690571    2.2446537 
C     2.0802174    3.0504607    0.0818092 
C     1.1747857    3.1928662    1.2277835 
C     1.3748600    2.4029579   -2.2031404 
C     1.3037528    3.3150433   -1.1402165 
C     0.4868841    0.4868841   -3.1668977 
C     0.1647537    1.8442462   -2.7575523 
C    -0.1647537   -1.8442462   -2.7575523 
C    -0.4868841   -0.4868841   -3.1668977 
C    -1.3748600   -2.4029579   -2.2031404 
C    -0.0238123   -3.7527941   -0.7333302 
C     0.0238123   -3.7527941    0.7333302 
C    -1.3037528   -3.3150433   -1.1402165 
C    -1.1747857   -3.1928662    1.2277835 
C    -2.0802174   -3.0504607    0.0818092 
C     0.1647537   -1.8442462    2.7575523 
C     0.4868841   -0.4868841    3.1668977 
C    -1.1284618   -2.1690571    2.2446537 
C    -0.1647537    1.8442462    2.7575523 
C    -0.4868841    0.4868841    3.1668977 
C    -1.3748600    2.4029579    2.2031404 
C    -0.0238123    3.7527941    0.7333302 
C     0.0238123    3.7527941   -0.7333302 
C    -1.3037528    3.3150433    1.1402165 
C    -1.1284618    2.1690571   -2.2446537 
C    -1.1747857    3.1928662   -1.2277835 
C    -2.0802174    3.0504607   -0.0818092 
C    -1.8442462   -0.1647537   -2.7575523 
C    -2.4029579   -1.3748600   -2.2031404 
C    -2.1690571    1.1284618   -2.2446537 
C    -3.0504607   -2.0802174    0.0818092 
C    -3.3150433   -1.3037528   -1.1402165 
C    -2.1690571   -1.1284618    2.2446537 
C    -1.8442462    0.1647537    2.7575523 
C    -2.4029579    1.3748600    2.2031404 
C    -3.1928662   -1.1747857    1.2277835 
C    -3.0504607    2.0802174   -0.0818092 
C    -3.1928662    1.1747857   -1.2277835 
C    -3.7527941   -0.0238123   -0.7333302 
C    -3.3150433    1.3037528    1.1402165 
C    -3.7527941    0.0238123    0.7333302 
