60 

C    -1.0652299   -4.1056236    1.3301473 
C     0.0618736   -4.2495138    0.4596234 
C     1.1821417   -3.5678125    1.0106129 
C    -0.7047594   -3.1285774    2.3235970 
C     0.6664280   -2.7983443    2.1562368 
C    -1.6201563   -2.0188253    2.2275112 
C    -2.0994113   -3.5173806    0.5451156 
C    -2.5605478   -2.2998988    1.1586031 
C    -0.3286618   -3.9398870   -0.9164661 
C    -1.7212230   -3.4976450   -0.8569538 
C     0.5779797   -3.2622525   -1.7331793 
C     2.1621400   -2.9840242    0.1670925 
C     1.8879453   -2.8882677   -1.2469404 
C     2.9419605   -1.9394257    0.7568296 
C     1.1338825   -1.4628456    2.4143920 
C     2.3955336   -1.1465258    1.8783717 
C    -1.2230090   -0.6720194    2.4921939 
C     0.1808054   -0.3745121    2.6767692 
C    -2.1505133    0.3644160    2.0733597 
C    -3.0706450   -1.2372765    0.3740837 
C    -3.0695893    0.0911816    0.9653952 
C    -2.1404448   -2.4091280   -1.6185400 
C    -2.9629964   -1.3676400   -1.0503104 
C     0.1136184   -2.1660633   -2.5902094 
C    -1.2155670   -1.7610033   -2.5524742 
C     2.2823159   -1.6866236   -1.9513080 
C     1.1395692   -1.1698524   -2.6891664 
C     3.6192922   -1.0262955   -0.0531164 
C     3.2070948   -0.7977192   -1.4069106 
C     2.8530249    0.2248347    1.7594900 
C     3.6712885    0.2719123    0.6026532 
C     0.6353102    1.0079663    2.5796275 
C     1.9903497    1.3209590    2.0783298 
C    -1.7522002    1.7065907    2.3262030 
C    -0.3513017    2.0180016    2.5200198 
C    -2.3355850    2.7934323    1.6023984 
C    -3.3800386    1.1787739    0.1011156 
C    -3.0754149    2.5168869    0.4614300 
C    -2.7197711   -0.1737811   -1.8157394 
C    -1.5317705   -0.3661718   -2.6433590 
C    -3.0268821    1.0555030   -1.3024498 
C     0.8561439    0.2297844   -2.7455237 
C    -0.5453794    0.6514910   -2.7402374 
C     3.0354845    0.6326518   -1.5940015 
C     3.4857729    1.2820018   -0.3599920 
C     1.8836731    1.1540895   -2.2592337 
C     2.2001751    2.5327895    1.3437831 
C     2.8948955    2.4709592    0.0680133 
C    -0.0862200    3.3215595    1.8711199 
C    -1.2760130    3.7499843    1.2526193 
C     1.1393138    3.5176617    1.2018201 
C    -2.4112237    3.1944571   -0.6746281 
C    -2.2280281    2.2228488   -1.6764167 
C    -0.9235191    2.0127375   -2.3011981 
C    -1.3216539    3.9710815   -0.1781148 
C     1.4935224    2.5044662   -1.9276283 
C     2.1232760    3.2053939   -0.8739687 
C     1.1045841    3.9484829   -0.1592288 
C     0.0879287    2.9359133   -1.9635708 
C    -0.1095687    3.9261236   -0.8976919 
