60 

C     2.2453294   -3.6211788    0.6019821 
C     3.1938660   -2.5608048    0.5412076 
C     2.9158656   -1.6013602    1.5715922 
C     1.3017153   -3.3006350    1.5973652 
C     1.6386549   -1.9973151    2.1596549 
C    -0.0088417   -3.4407207    1.0440274 
C     1.5077361   -3.6146668   -0.6615803 
C     0.1209080   -3.6491489   -0.3950386 
C     3.2326888   -2.0666645   -0.8117948 
C     2.0331012   -2.5793558   -1.4992651 
C     3.6242532   -0.7753967   -1.0058490 
C     3.2546700   -0.2440207    1.3768514 
C     3.9316734    0.0681802    0.1363491 
C     2.3877682    0.7792676    1.9719415 
C     0.6353231   -1.0268326    2.4179650 
C     1.0208903    0.3913240    2.4014556 
C    -1.0580335   -2.6502677    1.5252815 
C    -0.7861936   -1.4173906    2.2580280 
C    -2.2313468   -2.7400531    0.7132770 
C    -0.7830454   -2.9867412   -1.2715536 
C    -2.0769637   -2.8236005   -0.7486896 
C     1.1632364   -1.6674312   -2.1959845 
C    -0.2618329   -1.9680906   -2.1902166 
C     2.9300214    0.0736223   -1.9882644 
C     1.6103370   -0.2873932   -2.4173835 
C     3.9096943    1.3954826   -0.3589055 
C     3.2334041    1.3989190   -1.6761935 
C     2.6495658    2.1431617    1.5903084 
C     3.4284908    2.4402866    0.3870477 
C     1.5762567    3.0576738    1.5909633 
C    -0.0469953    1.3729611    2.4007125 
C     0.2793534    2.7051152    1.9606848 
C    -1.8478601   -0.4382108    2.3258912 
C    -1.4629906    0.9861405    2.3503817 
C    -3.3283117   -1.9531366    1.0086480 
C    -3.1812361   -0.8010500    1.8550632 
C    -3.0448425   -1.9240226   -1.3170673 
C    -3.9547245   -1.5342603   -0.2579292 
C    -1.1616708   -0.9401162   -2.5645277 
C    -2.5616200   -0.9390215   -2.1939685 
C     0.6397752    0.8033241   -2.5246528 
C    -0.7186572    0.4322158   -2.6505230 
C     2.2807310    2.4714180   -1.6886064 
C     2.5680732    3.2545553   -0.5048389 
C     1.5140200    3.7115995    0.2518600 
C     0.9330531    2.1725757   -2.0566063 
C    -0.6083880    3.3483025    0.9938736 
C     0.1816580    3.6345734   -0.2060625 
C    -0.1574321    2.9102212   -1.3915705 
C    -2.3913188    1.9243794    1.7935497 
C    -1.8849491    2.9494496    0.8945914 
C    -4.0429282    0.1924586    1.2676467 
C    -4.3873864   -0.2371062   -0.1173755 
C    -3.6065590    1.4934442    1.1895274 
C    -2.9843979    0.4539952   -2.0259993 
C    -1.8195587    1.2907829   -2.2653298 
C    -1.5412055    2.4548965   -1.5040168 
C    -2.4721441    2.7346231   -0.4303848 
C    -3.9264942    0.7999592   -1.0315737 
C    -3.6041854    1.9410837   -0.2259764 
