60 

C    -1.3149031   -3.8864781    0.7427333 
C    -1.7490708   -3.6963829   -0.5828081 
C    -2.8425863   -2.7278671   -0.5942062 
C    -2.0272928   -2.8980255    1.5422625 
C    -2.9693854   -2.1824353    0.7169634 
C    -1.0940491   -2.2070123    2.3482602 
C     0.0758589   -3.8041324    1.0628276 
C     0.2038442   -2.8641585    2.1709352 
C     1.0183477   -3.7173160    0.0181555 
C    -0.8217100   -3.3337177   -1.6095638 
C     0.5491590   -3.4201677   -1.3333217 
C    -2.6410170   -1.8474966   -1.6877046 
C    -1.3444820   -2.1393905   -2.2860323 
C    -3.0547717   -0.5341347   -1.5560445 
C    -3.1432788   -0.7817916    0.9063267 
C    -3.4676061   -0.0233908   -0.2637062 
C    -1.1967523   -0.7875101    2.5461881 
C    -2.3510537   -0.0976381    1.9445661 
C     0.0218827   -0.0431711    2.8473836 
C     1.3518189   -2.1156068    2.3191764 
C     1.2739039   -0.7332342    2.7467906 
C     2.2452556   -2.9723308    0.2060949 
C     2.4608857   -2.2470175    1.3899937 
C     1.4498874   -2.4678470   -1.9261330 
C     2.5988363   -2.3382990   -1.0499956 
C    -0.5005280   -1.0837842   -2.7038298 
C     0.9488234   -1.3110804   -2.6263373 
C    -2.3382635    0.5319258   -2.2108257 
C    -1.0281733    0.3020036   -2.7028017 
C    -3.3350059    1.4025449   -0.2948450 
C    -2.6968807    1.7729198   -1.5440783 
C    -2.3517212    1.3086289    1.9401237 
C    -2.9883041    2.0795405    0.8907133 
C     0.0419088    1.4105615    2.7235280 
C    -1.1918221    2.0824018    2.4185565 
C     1.2462239    2.0738758    2.3410480 
C     2.4513130   -0.0664404    2.2679193 
C     3.1547733   -0.9747122    1.3636177 
C     2.4323855    1.3047839    2.0264806 
C     3.3723315   -1.1771466   -1.0675232 
C     3.6899321   -0.4731275    0.1778226 
C     1.8207350   -0.1846771   -2.7036765 
C     3.0712083   -0.1887451   -2.0433575 
C    -0.0971392    1.4433476   -2.6444457 
C     1.2970852    1.1795035   -2.6262220 
C    -1.8400765    2.8769084   -1.5869579 
C    -0.5114342    2.6955456   -2.0983749 
C    -2.2801546    3.3163971    0.7837855 
C    -1.1881644    3.3337851    1.7789940 
C    -1.7544700    3.7377141   -0.4311476 
C     1.2163960    3.2129996    1.4453224 
C     0.4111574    3.4769993   -1.2411417 
C    -0.0000415    3.8424875    1.1588605 
C    -0.3427114    4.0815165   -0.2250372 
C     3.0207122    1.8415991    0.8302609 
C     3.6179174    0.9658095   -0.0976959 
C     3.2806448    1.1252558   -1.4679268 
C     2.2287370    1.9913661   -1.8664019 
C     2.1738939    2.9414034    0.3915582 
C     1.7369904    2.9944412   -0.9751062 
