60 

C    -0.4845975   -5.0601502   -0.2814495 
C    -1.0089925   -4.6076631    0.9318869 
C    -2.0633384   -3.6477014    0.7159525 
C    -1.1664091   -4.2955882   -1.3272040 
C    -2.1324185   -3.3803284   -0.7091553 
C    -0.1792033   -3.6993078   -2.1309669 
C     0.9168110   -4.6174478   -0.2927275 
C     1.1519652   -3.9322922   -1.4896276 
C     0.0085512   -3.9229232    1.7285780 
C     1.2150997   -3.8922738    0.9545966 
C    -1.8788606   -2.5663710    1.6220017 
C    -0.5501936   -2.7133282    2.2564505 
C    -2.2792156   -1.2898088    1.2647561 
C    -2.2293541   -2.0224714   -1.1173243 
C    -2.6339637   -1.0337035   -0.1238090 
C    -0.2276791   -2.3375323   -2.4988556 
C    -1.3214787   -1.4876139   -2.1359906 
C     1.8563395   -2.7094093   -1.5119781 
C     1.0992386   -1.7675760   -2.3161378 
C     1.9580051   -2.6802676    0.9375960 
C     2.4469756   -2.1513907   -0.3289279 
C     0.2535907   -1.5743549    2.4431854 
C     1.6135966   -1.6529518    1.9339770 
C    -1.7329363   -0.1750346    2.0284504 
C    -0.3837986   -0.2541928    2.5438476 
C    -2.2807714    1.0633282    1.7620617 
C    -2.8208172    0.3092942   -0.5196701 
C    -3.0566306    1.2662399    0.5266610 
C    -1.1317466   -0.0716493   -2.2668568 
C    -2.1624378    0.8095880   -1.7368536 
C     1.3191421   -0.3941074   -2.2639055 
C     0.1906508    0.4898282   -2.4891613 
C     2.9156778   -0.7956454   -0.4173428 
C     2.4772722    0.0655719   -1.5142891 
C     2.3375516   -0.4717952    1.9163918 
C     3.2202524   -0.1428253    0.8228627 
C     0.3828719    0.9606283    2.6118035 
C     1.8072661    0.8036100    2.4388731 
C    -1.6182191    2.3048933    2.0679992 
C    -0.2079688    2.2748997    2.3174208 
C    -3.0871507    2.6305536    0.2618592 
C    -2.2391625    3.3191549    1.2741680 
C    -2.0582797    2.1968983   -1.9308618 
C    -2.7214397    3.1292782   -1.0252409 
C     0.3866433    1.9181653   -2.3936145 
C    -0.7509954    2.7674310   -2.2674997 
C     2.6620293    1.4658400   -1.4252002 
C     1.6508034    2.3860788   -1.8781243 
C     3.4521959    1.2464200    0.8836010 
C     2.5864418    1.8403254    1.9264057 
C     3.2755173    2.0344716   -0.2461139 
C     0.5986657    3.3247944    1.6632643 
C     1.6593757    3.5352475   -0.9689581 
C     1.9903939    3.0467895    1.4109081 
C     2.5360273    3.2414905    0.1039680 
C    -1.4743090    4.2694676    0.5971202 
C    -1.8584507    4.2416063   -0.8223465 
C    -0.6566095    4.0153607   -1.5463390 
C    -0.0411403    4.1923960    0.7047878 
C     0.4696169    4.1980542   -0.6749028 
