60 

C    -0.0480215   -4.3008612   -0.3272776 
C    -0.1674414   -4.1380807    1.0584071 
C     1.1001386   -3.6136869    1.5497373 
C     1.2900188   -3.8776724   -0.7210645 
C     1.9918627   -3.3990393    0.4279307 
C     1.1346115   -3.0334481   -1.8549448 
C    -1.0093273   -3.7086224   -1.2206377 
C    -0.2783745   -2.8805118   -2.1748660 
C    -2.2082009   -3.2179746   -0.6765598 
C    -1.2327011   -3.3253535    1.5960005 
C    -2.2923022   -2.9534149    0.7749929 
C     0.8207153   -2.5393185    2.4161133 
C    -0.6283333   -2.3063681    2.4491853 
C     1.7012466   -1.4396237    2.4664477 
C     2.7604832   -2.1742681    0.3428724 
C     2.7296964   -1.2748097    1.4499418 
C     1.9835393   -1.9377072   -2.0052491 
C     2.8829016   -1.5459187   -0.9501862 
C     1.5284491   -0.7329545   -2.6667664 
C    -0.7809518   -1.6045759   -2.6185337 
C     0.1495997   -0.4888340   -2.8710910 
C    -2.8122419   -2.1131606   -1.3212095 
C    -2.1221746   -1.2899742   -2.2420332 
C    -2.9036792   -1.6406925    0.9552055 
C    -3.3701421   -1.2255150   -0.3152839 
C    -1.1457176   -0.9944920    2.5743388 
C    -2.3611408   -0.6422563    1.8352755 
C     1.2151335   -0.1664633    2.8183043 
C    -0.1929336    0.0747567    2.9225442 
C     2.9584152    0.1380215    1.3029475 
C     2.0858009    0.8343381    2.2004573 
C     3.1493089   -0.1346075   -1.0989913 
C     2.4136062    0.3217029   -2.2570893 
C     3.2512790    0.7351803    0.0338126 
C     2.0210710    1.6445443   -2.3743629 
C    -0.3150428    0.9229128   -2.7945490 
C     0.6369080    1.9579025   -2.6772360 
C    -2.4948840    0.1044653   -1.9559989 
C    -3.2729590    0.1119537   -0.7395230 
C    -1.6685386    1.1932618   -2.2784754 
C    -2.6462016    0.7572192    1.5491630 
C    -3.1156793    1.1429716    0.2162250 
C    -0.6116401    1.4080138    2.8131739 
C    -1.8825018    1.7459646    2.2539926 
C     1.6648688    2.1739646    1.9972909 
C     0.3382233    2.5100934    2.4899675 
C     2.9277731    2.1239125   -0.1383419 
C     2.4721678    2.5786463   -1.3974718 
C     2.1692970    2.8804974    0.8695321 
C     0.3312102    3.2384101   -1.9962708 
C     1.4590918    3.5956262   -1.2055830 
C     1.3358704    3.8706095    0.1944710 
C    -1.9481601    2.4084464   -1.5680965 
C    -2.7073892    2.3885694   -0.3485553 
C    -0.9474523    3.4797245   -1.4691457 
C    -1.7748724    3.0959107    1.7766341 
C    -0.3793835    3.5648140    1.9374008 
C     0.0519837    4.1806760    0.6999236 
C    -2.1689493    3.4156296    0.4907437 
C    -1.0679337    4.1014663   -0.1976387 
