60 

C     0.4435098   -4.8984467   -0.5173930 
C     1.6327555   -4.1257771   -0.5877683 
C     2.0403917   -3.7301746    0.7256339 
C    -0.0617812   -4.7229912    0.8565795 
C     0.9017598   -4.0156391    1.6217053 
C    -1.3746428   -4.1929273    0.7993191 
C    -0.5091800   -4.2542114   -1.3844879 
C    -1.6746303   -3.9713902   -0.6424144 
C     1.4715596   -3.0648887   -1.5877538 
C     0.1201211   -3.1202460   -2.0728790 
C     2.0900066   -1.8104303   -1.4191950 
C     2.4661130   -2.4186981    0.9422425 
C     2.7214792   -1.5215778   -0.1456859 
C     0.5712645   -2.7868546    2.2652525 
C     1.6516351   -1.8523144    2.0166041 
C    -1.7322725   -2.9941571    1.4618154 
C    -0.7663447   -2.2276855    2.2344543 
C    -2.3504223   -2.7524427   -0.7969721 
C    -2.5437828   -2.2140220    0.5298968 
C    -0.6013146   -1.9045429   -2.3463605 
C    -1.9540382   -1.8062617   -1.8069885 
C     1.5379836   -0.6734608   -2.1521600 
C     0.1385493   -0.6706493   -2.5373237 
C     2.2090338    0.5457051   -1.9909869 
C     2.9891186   -0.1667159    0.2061444 
C     3.1122719    0.7463586   -0.8736601 
C     1.5195752   -0.4772610    2.1791647 
C     2.4913652    0.3597433    1.4832807 
C    -0.9276674   -0.7913350    2.3615125 
C     0.2257462    0.0784478    2.5299104 
C    -2.8169330   -0.8626129    0.7371833 
C    -2.1397317   -0.1606265    1.8271458 
C    -2.5133727   -0.5341068   -1.6694553 
C    -3.1427673   -0.1130265   -0.4327503 
C    -0.5550615    0.6307071   -2.6048856 
C    -1.9232001    0.6432617   -2.2332561 
C     1.6054739    1.8386160   -2.2867477 
C     0.1760079    1.9023462   -2.4950114 
C     3.1903601    2.1384894   -0.6350098 
C     2.3015875    2.8379698   -1.5694053 
C     2.4086495    1.7478556    1.6544882 
C     2.9035064    2.6334670    0.6385869 
C     0.0848100    1.5269433    2.5374251 
C     1.1957386    2.3477831    2.1990191 
C    -2.3010807    1.2270481    1.8761173 
C    -1.2347744    2.1015083    2.3625394 
C    -3.2118022    1.3056731   -0.4016122 
C    -2.5271784    1.8036270   -1.5923913 
C    -2.9994000    1.9573950    0.8263254 
C    -0.4819203    3.0781357   -2.0224783 
C    -1.8586229    3.0175988   -1.5601834 
C     1.5981379    3.8639355   -0.8592769 
C     1.9903388    3.7695494    0.5244259 
C     1.0029828    3.6491025    1.5364930 
C     0.2235661    4.0416301   -1.1529923 
C    -1.4096716    3.3956934    1.8290889 
C    -2.4688073    3.2854432    0.8087956 
C    -1.9707777    3.8367281   -0.3700980 
C    -0.3086630    4.1183986    1.2754278 
C    -0.6555583    4.4063131   -0.0989949 
