60 

C    -0.0295331   -4.7310024    0.1606896 
C     0.9723268   -4.2790013   -0.8079580 
C     2.0333378   -3.7236964   -0.0808401 
C     0.3309945   -4.1762571    1.4654892 
C     1.5970969   -3.6211653    1.3519889 
C    -0.7261890   -3.2828465    1.9147231 
C    -1.2358132   -4.1314870   -0.1972797 
C    -1.7589673   -3.3218851    0.9032135 
C     0.3290344   -3.4639684   -1.8261021 
C    -1.0950255   -3.4845812   -1.4975269 
C     0.9163836   -2.2434678   -2.2839365 
C     2.5780597   -2.4830972   -0.4354459 
C     2.1508515   -1.8016889   -1.6292482 
C     1.9070624   -2.3037359    1.8122689 
C     2.6904229   -1.6750659    0.7822830 
C    -0.4173097   -2.0338612    2.5526759 
C     0.9597389   -1.5029491    2.5252913 
C    -1.4553299   -1.0680464    2.5401600 
C    -2.5512639   -2.1755682    0.6237053 
C    -2.5179987   -1.1244270    1.5744830 
C    -1.8642177   -2.3759253   -1.7635957 
C    -2.7304309   -1.7657561   -0.7413831 
C     0.0404077   -1.1843489   -2.8212408 
C    -1.3530934   -1.3150334   -2.5845932 
C     0.5417610    0.1761382   -3.0490836 
C     2.5146324   -0.4402686   -1.6966187 
C     1.8270484    0.5195292   -2.5444179 
C     2.8517861   -0.2888361    0.7388194 
C     3.0349453    0.2740990   -0.5649872 
C     1.1977630   -0.0721641    2.5964468 
C     2.2646568    0.5125277    1.7956011 
C    -1.2179855    0.3098007    2.8721456 
C     0.1055032    0.8187836    3.0140261 
C    -2.8726995    0.2354769    1.2450103 
C    -2.2215262    1.1006526    2.1989284 
C    -2.9189255   -0.4015467   -1.0805135 
C    -2.1743820   -0.1548805   -2.3088775 
C    -3.0270144    0.6540464   -0.1013033 
C    -0.3967079    1.2694647   -3.1486845 
C    -1.7521570    1.1014008   -2.6308248 
C    -0.0260592    2.5831049   -2.8056136 
C     2.1293825    1.8427888   -2.0528825 
C     2.8367126    1.6737577   -0.7896387 
C     1.2090765    2.8937392   -2.1807623 
C     2.3135987    1.9332362    1.6069126 
C     2.5748476    2.5143878    0.2808167 
C     0.2469541    2.2407737    2.9001645 
C     1.4251867    2.7863351    2.2788755 
C    -1.9936771    2.4394478    1.9038996 
C    -0.8480742    3.0580393    2.4627060 
C    -2.6408128    2.0332774   -0.4754982 
C    -2.1088387    2.2506008   -1.8011251 
C    -1.0945011    3.2072497   -2.0110416 
C    -2.2069063    2.9348329    0.5387791 
C     0.9478819    3.8072730   -1.0578395 
C     1.6884567    3.6728148    0.1239338 
C     1.0442557    3.8803072    1.3929576 
C    -0.3487782    4.0120532    1.4783136 
C    -0.5150321    3.9649943   -0.9640335 
C    -1.1609167    3.9256246    0.2975879 
