60 

C    -0.3800411    3.9485573   -1.2509545 
C    -1.6951993    3.6553524   -0.9069664 
C    -2.1542961    2.5789327   -1.7838061 
C     0.0102604    3.0415780   -2.3444528 
C    -1.0584876    2.1364436   -2.6169098 
C     1.2905801    2.5509724   -2.0658146 
C     0.6664784    3.9595361   -0.2741096 
C     1.7494969    3.1378248   -0.7996957 
C     0.3124477    3.8144689    1.0906655 
C    -2.0157239    3.2684087    0.4475909 
C    -1.0439738    3.3803792    1.4412469 
C    -2.8559643    1.6380502   -1.0082724 
C    -2.7995591    2.0480264    0.3830803 
C    -2.8570240    0.2607683   -1.3943952 
C    -0.8078370    0.7387570   -2.8047650 
C    -1.8618325   -0.1961524   -2.3856937 
C     1.6274680    1.2132852   -2.4388876 
C     0.5755616    0.2798935   -2.8673103 
C     2.7854498    0.6941922   -1.7977023 
C     2.5819351    2.3586337    0.0598302 
C     3.1715074    1.1910709   -0.4909330 
C     1.2061186    3.1056887    1.9551547 
C     2.2904010    2.3518216    1.4733984 
C    -0.9163994    2.3025791    2.4462452 
C     0.4329945    2.2357552    2.8242541 
C    -2.7384005    1.0380391    1.3837440 
C    -1.6973169    1.0984912    2.4021060 
C    -3.3273528   -0.6276681   -0.4126845 
C    -3.2504322   -0.2298292    0.9897151 
C    -3.0594948   -2.0528607   -0.4929464 
C    -1.5967016   -1.5727443   -2.4369887 
C    -2.2508360   -2.5285217   -1.5361013 
C     0.8418404   -1.1550322   -2.8038121 
C    -0.2554561   -2.0576874   -2.7028333 
C     3.0379374   -0.6939595   -1.8082851 
C     2.0992279   -1.6281124   -2.2696047 
C     3.4985462    0.0194042    0.3392458 
C     3.5344324   -1.1036384   -0.4994734 
C     2.3148251    1.0632077    2.2003354 
C     1.1079227    0.9870547    2.9679692 
C     2.8968193   -0.0974343    1.6436013 
C    -1.0842479   -0.1570415    2.8658894 
C     0.3614647   -0.2189424    3.0609846 
C    -2.8909968   -1.3834462    1.7207491 
C    -2.8343701   -2.5368157    0.8298492 
C    -1.7505875   -1.3825117    2.5542683 
C    -1.7019417   -3.3249951    1.1595531 
C    -1.0192456   -2.6249568    2.2519455 
C    -1.3099322   -3.5586509   -1.2458666 
C    -0.1112655   -3.2997582   -2.0020339 
C    -0.9398114   -3.8887677    0.1040778 
C     2.1450560   -2.7702707   -1.3376928 
C     2.9269561   -2.3534500   -0.1742958 
C     1.0232825   -3.5671816   -1.1728827 
C     0.5165821   -3.8811284    0.1688518 
C     2.3099937   -1.3652395    1.9997675 
C     1.0638532   -1.4169048    2.7049160 
C     0.3612907   -2.6144591    2.2922132 
C     2.3686809   -2.5212921    1.1002996 
C     1.1553171   -3.2877202    1.2646222 
