60 

C     3.6450774   -1.7797869    0.9582454 
C     3.8351977   -1.7185087   -0.4233337 
C     4.1994173   -0.3499591   -0.7874716 
C     3.8232142   -0.4287604    1.4990262 
C     4.1967125    0.4418408    0.4165364 
C     2.6850102   -0.1520053    2.2852972 
C     2.4505509   -2.3539150    1.5123372 
C     1.8618915   -1.3705371    2.3926871 
C     1.6058520   -3.0876773    0.6662064 
C     2.7853298   -2.1714381   -1.3025280 
C     1.7650853   -2.9543430   -0.7773189 
C     3.3760909    0.0333138   -1.8835653 
C     2.4601418   -1.0570945   -2.2055411 
C     2.8984987    1.3608119   -1.9685815 
C     3.6173157    1.7254996    0.3742808 
C     3.1882685    2.2498790   -0.8796638 
C     2.0353655    1.1405227    2.2389446 
C     2.5993303    2.1117521    1.3609068 
C     0.6171875    1.2098953    2.6089952 
C     0.4728986   -1.3176593    2.6152468 
C    -0.1360738   -0.0158826    2.9187091 
C     0.2055683   -3.1228083    0.9370690 
C    -0.3584691   -2.3598478    1.9901381 
C     0.4421652   -2.8665816   -1.3427887 
C    -0.5178892   -3.1815988   -0.3310429 
C     1.1315957   -0.8112681   -2.6078972 
C     0.1355924   -1.8545392   -2.3208668 
C     1.5485604    1.6220745   -2.3941899 
C     0.6548488    0.5844117   -2.7374829 
C     2.0450839    3.1042187   -0.6793361 
C     1.7227342    3.0766002    0.7132619 
C     1.0406680    2.7659052   -1.6170162 
C    -0.1317456    2.3229666    2.1425432 
C     0.3924827    3.1489820    1.0748327 
C    -1.5616249    2.2677221    1.9693620 
C    -1.5498883    0.0445379    2.9432609 
C    -2.2830578    1.1925097    2.4468125 
C    -1.7764346   -2.1893017    1.9468815 
C    -2.3521043   -1.1058489    2.5964064 
C    -1.8795143   -2.8162374   -0.4568808 
C    -2.5811116   -2.4631273    0.7270521 
C    -1.2140254   -1.5638735   -2.5203000 
C    -2.2685427   -2.1802456   -1.6983883 
C    -0.7794400    0.8752962   -2.7230751 
C    -1.6601849   -0.2336766   -2.8872467 
C    -0.3355310    2.8728713   -1.2822420 
C    -0.6415766    3.2581095    0.0628598 
C    -1.8793829    2.8583275    0.6675807 
C    -1.2947260    2.0507854   -2.0098662 
C    -2.8983309    2.3459777   -0.1121653 
C    -2.6384835    2.0325547   -1.5165574 
C    -3.4643723    0.7227930    1.7028572 
C    -3.5229937   -0.6747201    1.8327129 
C    -3.6863639   -1.5384691    0.6923604 
C    -3.7931049    1.3166262    0.4376629 
C    -3.3990035   -1.3572039   -1.7431316 
C    -3.0324449   -0.1487123   -2.5159849 
C    -3.5139906    0.9592429   -1.8417690 
C    -4.0825278   -0.9537040   -0.5471348 
C    -4.2047942    0.4833022   -0.6177054 
