60 

C     1.9932277    3.7830846    0.6317294 
C     2.9263478    2.8564953    0.0454953 
C     2.3936276    2.4762603   -1.2154323 
C     0.9290304    4.0629397   -0.2749205 
C     1.1241632    3.2082326   -1.4091640 
C    -0.3026767    3.9205845    0.4720117 
C     1.4480242    3.1726377    1.7915786 
C     0.0102613    3.2346414    1.7327835 
C     3.1776463    1.8168533    1.0035569 
C     2.1536230    1.9330923    2.0449240 
C     3.4827836    0.5694208    0.5172818 
C     2.5277488    1.1401437   -1.6869869 
C     3.3431586    0.2696600   -0.8929208 
C     1.4305988    0.5268444   -2.4502339 
C     0.0087411    2.5577603   -2.0267058 
C     0.1208730    1.1967268   -2.5288000 
C    -1.4237955    3.5505444   -0.2059601 
C    -1.2950651    3.0312352   -1.5866448 
C    -2.4520629    2.7773440    0.4475476 
C    -0.7648452    2.1341687    2.1523311 
C    -2.1213465    1.9665340    1.5873610 
C     1.4386782    0.7973825    2.4609851 
C    -0.0244688    0.9491572    2.6675751 
C     3.0721641   -0.6167354    1.2295331 
C     2.0076052   -0.5398406    2.1629976 
C     3.2755363   -1.1572085   -1.0263118 
C     3.1928591   -1.7346734    0.3148615 
C     1.4871280   -0.8590958   -2.6637036 
C     2.5080358   -1.7100655   -2.0569102 
C     0.2692700   -1.6706048   -2.7272863 
C    -1.0889887    0.3738513   -2.6490616 
C    -1.0091383   -1.0778304   -2.5149749 
C    -2.4366989    2.2971155   -1.8506898 
C    -3.2570412    2.2425560   -0.6063341 
C    -2.3637407    0.9705563   -2.3732505 
C    -3.8060937    0.9899028   -0.5150718 
C    -3.3464293    0.1952443   -1.6772322 
C    -2.8031048    0.6848813    1.7267280 
C    -3.6494937    0.1960479    0.6586474 
C    -0.7575480   -0.2057701    2.9005328 
C    -2.1536971   -0.3202966    2.5140126 
C     1.1953752   -1.7378664    2.3485714 
C    -0.1369261   -1.5559151    2.8434997 
C     2.4791838   -2.9088675    0.5352409 
C     1.4610684   -2.9152212    1.5775888 
C     1.9408940   -3.0109125   -1.8649130 
C     0.5508872   -2.9780190   -2.2981594 
C     1.9641963   -3.6194029   -0.6027623 
C     0.3496304   -3.7269805    1.0786622 
C    -0.2805770   -3.6071796   -1.2968505 
C     0.6100210   -4.0608191   -0.2736721 
C    -1.9774028   -1.8305823   -1.7244112 
C    -3.1096321   -1.1069854   -1.2410275 
C    -3.4703860   -1.1657809    0.1817003 
C    -1.5324033   -3.0039611   -0.9562327 
C    -2.3648800   -1.6895954    2.2393377 
C    -1.1533849   -2.4514040    2.4935054 
C    -0.9673778   -3.3996318    1.4381928 
C    -2.8732147   -2.1189356    0.9822007 
C    -1.9499687   -3.1017175    0.4156503 
