60 

C     0.6530639   -4.3555710   -1.3858582 
C     1.8966815   -3.6836107   -1.0601781 
C     2.0923436   -3.6857318    0.3366375 
C    -0.0734224   -4.4681601   -0.1385365 
C     0.8079739   -4.1189350    0.9216434 
C    -1.3053054   -3.7303163   -0.2285789 
C    -0.0760616   -3.4275030   -2.1687127 
C    -1.3374985   -3.1278724   -1.5600929 
C     1.9863420   -2.4181585   -1.7764559 
C     0.7391127   -2.2797067   -2.5067068 
C     2.5716072   -1.2758044   -1.1779839 
C     2.4872739   -2.4998977    0.9913491 
C     2.9203180   -1.3486408    0.2411413 
C     0.4522810   -3.1908455    1.9342117 
C     1.5740796   -2.2744619    2.1021477 
C    -1.7932300   -2.9571872    0.8787698 
C    -0.8827496   -2.6692425    2.0213184 
C    -2.7645714   -1.9849123    0.5570295 
C    -1.9701036   -1.8853099   -1.8008296 
C    -2.9404989   -1.5182596   -0.8173264 
C     0.1641508   -1.0122549   -2.7136162 
C    -1.2718559   -0.8181159   -2.5072813 
C     2.2410837    0.0231494   -1.7568714 
C     1.0685923    0.1161388   -2.5978961 
C     2.7030538    1.2437706   -1.0964954 
C     2.9609807   -0.1312550    0.9504067 
C     3.0178900    1.1480355    0.2842489 
C     1.3993981   -0.9844659    2.6486136 
C     2.2607458    0.0532554    2.1854552 
C    -1.0464283   -1.4346703    2.7024156 
C     0.0871631   -0.6063452    3.0554525 
C    -3.0555058   -0.8419108    1.4225049 
C    -2.1502924   -0.5396807    2.4501661 
C    -3.4476178   -0.2076837   -0.7671644 
C    -3.5679281    0.2153173    0.6232578 
C    -1.7737463    0.5395886   -2.4007305 
C    -2.8707707    0.8363108   -1.5116648 
C     0.5158197    1.4003658   -2.8693805 
C    -0.9089098    1.6184729   -2.6787344 
C     2.2412770    2.5400121   -1.5654147 
C     1.1947421    2.5823795   -2.5446463 
C     2.0368133    3.6244929   -0.6564311 
C     2.5611982    2.1609238    1.2206332 
C     1.9071486    1.4490912    2.2888660 
C     2.0448529    3.3795390    0.7482323 
C    -0.3182782    0.7753537    3.0435047 
C    -1.7043475    0.8221088    2.6310656 
C     0.5839584    1.8237434    2.7049685 
C    -3.0877348    1.5307698    0.7204217 
C    -2.7876233    1.9993656   -0.6329039 
C    -2.1795819    1.8912322    1.7927153 
C    -1.0576221    2.9313391   -2.0662190 
C     0.2077260    3.5755391   -2.1258135 
C     0.7265402    4.2208431   -0.9839814 
C    -1.8795966    3.0470206   -0.8624211 
C     0.7996211    3.8615087    1.3050793 
C     0.0224942    3.0275208    2.1260078 
C    -1.3311756    2.9967262    1.5721786 
C    -0.0342406    4.3317452    0.1989155 
C    -1.3096304    3.7108499    0.2995678 
