60 

C     2.0408665    3.6203151    0.1115921 
C     0.7647624    4.1677264   -0.0661916 
C     0.2899620    3.8175463   -1.4139618 
C     2.3545984    2.8838097   -1.1013148 
C     1.2289293    2.9013269   -1.9928323 
C     2.9704278    1.6643357   -0.7738646 
C     2.3133944    2.7342310    1.2089753 
C     2.9990493    1.5545629    0.6725192 
C     1.3159089    2.5061301    2.1624261 
C    -0.2905720    3.9083124    0.8652696 
C    -0.0024246    3.1198427    2.0086455 
C    -1.0756127    3.4834896   -1.3226835 
C    -1.4856642    3.5942536    0.0910847 
C    -1.5578573    2.4082018   -2.0871405 
C     0.7834261    1.6492708   -2.5725196 
C    -0.6210565    1.4887492   -2.7332584 
C     2.7527570    0.4996789   -1.5628796 
C     1.5926772    0.4323895   -2.4427946 
C     3.2453467   -0.6840187   -0.9617498 
C     2.9442068    0.2849640    1.3076434 
C     3.2955876   -0.8178678    0.4903646 
C     1.1336850    1.1669851    2.7250991 
C     1.9885016    0.0764835    2.3926587 
C    -0.9597015    2.1487012    2.4698521 
C    -0.2568969    0.9596917    2.9522384 
C    -2.4350895    2.7066601    0.5851761 
C    -2.1872886    1.9856437    1.8264084 
C    -2.6633784    1.6278417   -1.6186349 
C    -3.1262204    1.7877151   -0.2977428 
C    -1.2290897    0.1854321   -2.7867241 
C    -2.5288095    0.2829867   -2.1703070 
C     0.9874072   -0.8779255   -2.6768667 
C    -0.4659766   -1.0114581   -2.7321995 
C     2.8815143   -1.9288783   -1.4848013 
C     1.7377172   -2.0559064   -2.3209758 
C     2.9406504   -2.1898369    0.8331141 
C     2.8223837   -2.9206568   -0.3967930 
C     1.4604901   -1.2331789    2.5737372 
C     1.9693310   -2.3926794    1.8308642 
C    -0.8388361   -0.3369974    2.8911625 
C     0.0727697   -1.4348491    2.8320673 
C    -2.7913636    0.6743471    1.7344036 
C    -3.4763543    0.6043828    0.4581711 
C    -2.1759369   -0.4887244    2.3135195 
C    -3.0908780   -0.8048318   -1.5263139 
C    -3.6233633   -0.6296767   -0.1834350 
C    -1.1238165   -2.2109071   -2.1789314 
C    -2.4124856   -2.0890786   -1.5849287 
C     1.0750500   -3.2574491   -1.8811243 
C     1.7391289   -3.7423651   -0.6424207 
C    -0.2983451   -3.2878657   -1.6713561 
C     0.8717074   -3.3096739    1.6081206 
C    -0.3002532   -2.7146943    2.2336943 
C     0.7298486   -3.9580309    0.3499280 
C    -0.5446789   -3.8738560   -0.3270408 
C    -2.5180824   -1.7558879    1.7417300 
C    -3.2883782   -1.8053232    0.5403906 
C    -2.6851650   -2.7673514   -0.3439903 
C    -1.5630661   -2.8622705    1.6849794 
C    -1.6854440   -3.4837673    0.3599413 
