60 

C     5.0716698    0.5483610   -0.3656400 
C     4.6447790   -0.6947094   -0.9372219 
C     4.3169479   -1.6181618    0.0986698 
C     4.7772429    0.4779378    1.0525416 
C     4.2924386   -0.8391441    1.3490180 
C     3.9268889    1.5664635    1.3917840 
C     4.1987125    1.5676558   -0.9086328 
C     3.6359416    2.3202250    0.1548446 
C     3.6271210   -0.4269441   -1.9523117 
C     3.2980959    0.9946387   -1.8923789 
C     2.5924831   -1.3410263   -2.1354030 
C     3.1283662   -2.3861792    0.0280663 
C     2.3689873   -2.3984941   -1.1591328 
C     3.0290633   -1.0532496    1.9650208 
C     2.3562398   -2.1260728    1.2402744 
C     2.6924613    1.3789677    2.0668055 
C     2.1982661    0.0613999    2.4057217 
C     2.2722940    2.6529117    0.1427002 
C     1.7197427    2.2439214    1.4342479 
C     1.9301381    1.4134211   -1.9713990 
C     1.4379640    2.3587461   -0.9804733 
C     1.2863954   -0.8882572   -2.5488032 
C     0.9271941    0.4816631   -2.4879278 
C     0.9549707   -2.6435879   -1.1042847 
C     0.3058931   -1.8511710   -2.1103418 
C     0.9658756   -2.2968628    1.2949653 
C     0.2489999   -2.7765054    0.1166592 
C     0.7808159   -0.1368314    2.5247839 
C     0.2157457   -1.4391511    2.1931557 
C     0.3590789    2.0904546    1.6126091 
C    -0.1562918    0.9680651    2.3649974 
C     0.0214018    2.5037712   -0.7811535 
C    -0.4961468    2.6060037    0.5641208 
C    -0.4908829    0.7964986   -2.4417085 
C    -0.9133834    2.0103038   -1.7689044 
C    -1.0689490   -1.5790710   -2.0889509 
C    -1.4830593   -0.2635678   -2.5335447 
C    -1.1902356   -2.7420306    0.0739606 
C    -1.8865233   -2.3086114   -1.1287294 
C    -1.1650342   -1.6330271    2.2566785 
C    -1.8510613   -2.4755188    1.3161777 
C    -1.5983922    0.7789304    2.4453763 
C    -2.0970234   -0.5606988    2.6204061 
C    -1.8828855    2.5983151    0.8013945 
C    -2.4739958    1.7035255    1.8100124 
C    -2.3006985    2.2742924   -1.5651072 
C    -2.7723670    2.7127979   -0.2662027 
C    -2.8709496    0.0590356   -2.4077429 
C    -3.2805469    1.3716902   -2.0441520 
C    -3.2860524   -1.9865241   -1.0584108 
C    -3.7654115   -0.8709148   -1.7745147 
C    -3.2360684   -2.1246668    1.3707553 
C    -3.3911650   -0.9088137    2.1995332 
C    -3.9803194   -1.9691097    0.2232148 
C    -3.8138595    1.3481827    1.3561879 
C    -4.0025033    2.0025617    0.0740088 
C    -4.3854739    1.2655881   -1.0584289 
C    -4.7187060   -0.1054794   -0.9205270 
C    -4.2615379    0.0002468    1.5094460 
C    -4.7626910   -0.7121941    0.3338903 
