60 

C     2.9493979    2.2222917    2.0805114 
C     2.1915829    1.2982287    2.8909544 
C     2.5508033   -0.0382653    2.5580640 
C     3.7017942    1.4445663    1.1375774 
C     3.5924838    0.0576822    1.5193811 
C     3.2806077    1.7835599   -0.1917499 
C     2.0018569    2.9990425    1.3761307 
C     2.1852258    2.7404821   -0.0309426 
C     0.7949595    1.6701941    2.8704033 
C     0.6743549    2.7326849    1.9087642 
C    -0.2093151    0.6981885    3.0103396 
C     1.5390207   -1.0471303    2.5150917 
C     0.2093151   -0.6981885    3.0103396 
C     1.6591339   -2.1194963    1.5323078 
C     3.6441913   -0.9016494    0.5414612 
C     2.7812469   -2.0863333    0.6359415 
C     3.2427319    0.8007204   -1.2264341 
C     3.7141842   -0.5241985   -0.8657846 
C     2.2035580    0.9277142   -2.2532282 
C     1.0785498    2.7653371   -0.9064628 
C     1.1608917    1.9612246   -2.1171369 
C    -0.4640969    2.8360230    1.0935931 
C    -0.2431257    3.1089387   -0.3298597 
C    -1.5390207    1.0471303    2.5150917 
C    -1.6591339    2.1194963    1.5323078 
C    -2.5508033    0.0382653    2.5580640 
C    -0.7949595   -1.6701941    2.8704033 
C    -2.1915829   -1.2982287    2.8909544 
C     0.4640969   -2.8360230    1.0935931 
C    -0.6743549   -2.7326849    1.9087642 
C     0.2431257   -3.1089387   -0.3298597 
C     2.6502313   -2.6187701   -0.6504133 
C     3.2593743   -1.6554223   -1.5898347 
C     1.3687048   -3.0380974   -1.1693173 
C     1.8489358   -0.2461894   -3.0003281 
C     2.3886013   -1.5142025   -2.6551179 
C     1.2355620   -2.4294377   -2.4466333 
C     0.4523147   -0.5029549   -3.3714014 
C     0.0502942   -1.8087278   -2.8658766 
C    -0.0502942    1.8087278   -2.8658766 
C    -0.4523147    0.5029549   -3.3714014 
C    -1.3687048    3.0380974   -1.1693173 
C    -1.2355620    2.4294377   -2.4466333 
C    -2.7812469    2.0863333    0.6359415 
C    -2.6502313    2.6187701   -0.6504133 
C    -3.5924838   -0.0576822    1.5193811 
C    -3.6441913    0.9016494    0.5414612 
C    -2.9493979   -2.2222917    2.0805114 
C    -2.0018569   -2.9990425    1.3761307 
C    -3.7017942   -1.4445663    1.1375774 
C    -1.0785498   -2.7653371   -0.9064628 
C    -1.1608917   -1.9612246   -2.1171369 
C    -2.1852258   -2.7404821   -0.0309426 
C    -3.2806077   -1.7835599   -0.1917499 
C    -1.8489358    0.2461894   -3.0003281 
C    -2.3886013    1.5142025   -2.6551179 
C    -3.2593743    1.6554223   -1.5898347 
C    -3.7141842    0.5241985   -0.8657846 
C    -2.2035580   -0.9277142   -2.2532282 
C    -3.2427319   -0.8007204   -1.2264341 
