60 

C    -1.8655978   -4.0223227    0.5372677 
C    -0.4642839   -4.2374425    0.3860094 
C     0.2347491   -3.5719379    1.4352671 
C    -2.0560255   -3.0748675    1.6092373 
C    -0.7692683   -2.7620930    2.1444038 
C    -2.8491844   -1.9751517    1.1487026 
C    -2.3085899   -3.3527562   -0.6442176 
C    -3.0976954   -2.2142315   -0.2800730 
C    -0.0882081   -3.8810307   -0.9838151 
C    -1.2231127   -3.2060861   -1.5952263 
C     1.1762650   -3.4106347   -1.2238789 
C     1.5535766   -3.0807590    1.2140254 
C     2.1084680   -3.2203836   -0.1131383 
C     1.9351542   -1.9095582    1.9432511 
C    -0.4608297   -1.4204821    2.5368528 
C     0.9210652   -1.0830991    2.5660921 
C    -2.6253018   -0.6418444    1.5910770 
C    -1.4230983   -0.3437280    2.3583530 
C    -3.2231843    0.4164902    0.7832375 
C    -3.1020430   -1.1332528   -1.1362735 
C    -3.4083847    0.1657134   -0.6201359 
C    -1.0363055   -1.9534379   -2.2703736 
C    -2.0879959   -0.9982813   -2.1680270 
C     1.3924345   -2.2839300   -2.1446097 
C     0.3159863   -1.4283721   -2.5201361 
C     3.0810848   -2.2952121   -0.5559982 
C     2.6617615   -1.7420302   -1.8302265 
C     2.9898425   -1.0281659    1.5034677 
C     3.5681358   -1.2150695    0.2282538 
C     1.3709786    0.2916572    2.5740050 
C     2.6856160    0.3168035    1.9627519 
C    -0.9699718    1.0431770    2.4575995 
C     0.4707261    1.3688154    2.4997270 
C    -2.9815043    1.7532735    1.1661621 
C    -1.8636613    2.0585094    2.0425045 
C    -3.0254841    2.8119511    0.1892741 
C    -2.8438777    1.1160848   -1.5312258 
C    -1.8490086    0.4002343   -2.3240706 
C    -2.6641842    2.4320789   -1.1479443 
C     0.5722774    0.0232621   -2.6212397 
C    -0.5462701    0.9570810   -2.5327349 
C     2.9347671   -0.3648964   -1.8684552 
C     3.6904629   -0.0538814   -0.6496891 
C     1.9226033    0.5358771   -2.3503350 
C     3.0810693    1.4236376    1.2314392 
C     3.6004872    1.2213237   -0.1304394 
C     0.9758409    2.6360687    1.9082916 
C     2.2475230    2.6069322    1.2294716 
C    -1.3737997    3.3774929    1.6673088 
C    -2.1394927    3.8615297    0.5816724 
C     0.0386594    3.5846313    1.4344460 
C    -1.4313596    3.1247238   -1.5287452 
C    -0.3507642    2.3784411   -2.1612273 
C    -1.1704502    4.0597665   -0.4871634 
C     0.1460600    4.1049483    0.0750257 
C     2.0859131    1.9022512   -1.9635059 
C     3.0234493    2.2413179   -0.9358023 
C     2.3516168    3.1813160   -0.0776006 
C     0.9609907    2.8220179   -1.8782492 
C     1.2013732    3.6875308   -0.7306204 
