60 

C     3.6264194   -0.2201966    2.2035832 
C     3.6827564   -1.2724239    1.2607864 
C     2.5941117   -2.1997782    1.5719286 
C     2.5002178   -0.4853973    3.1192783 
C     1.8435583   -1.6729017    2.6711047 
C     1.7366165    0.7081274    3.2364947 
C     3.5347328    1.1210263    1.7744041 
C     2.3885995    1.7199192    2.4474976 
C     3.4452197    1.4178864    0.3776002 
C     3.6465703   -1.0058749   -0.1299503 
C     3.6246477    0.3656818   -0.5923623 
C     1.9468380   -2.5454195    0.3693064 
C     2.6792142   -1.9305694   -0.7285809 
C     0.5286655   -2.6904265    0.3073802 
C     0.4264427   -1.7556408    2.6576199 
C    -0.2114301   -2.4592990    1.5484328 
C     0.3190648    0.6553794    3.2754329 
C    -0.3190648   -0.6553794    3.2754329 
C    -0.4264427    1.7556408    2.6576199 
C     1.6302522    2.4113731    1.4814572 
C     2.3018013    2.3077747    0.2021751 
C     0.2114301    2.4592990    1.5484328 
C     1.5815502    2.3946822   -1.0130903 
C     3.0434902    0.5758024   -1.8538087 
C     2.1896594    1.7368034   -2.1254568 
C     2.0600654   -1.6935627   -1.9528778 
C     2.5199218   -0.5076265   -2.6550073 
C    -0.1219729   -2.5702530   -0.9952607 
C     0.6675704   -2.1673778   -2.1631492 
C    -1.5815502   -2.3946822   -1.0130903 
C    -1.6302522   -2.4113731    1.4814572 
C    -2.3018013   -2.3077747    0.2021751 
C    -1.7366165   -0.7081274    3.2364947 
C    -2.3885995   -1.7199192    2.4474976 
C    -1.8435583    1.6729017    2.6711047 
C    -2.5002178    0.4853973    3.1192783 
C    -2.5941117    2.1997782    1.5719286 
C    -0.5286655    2.6904265    0.3073802 
C     0.1219729    2.5702530   -0.9952607 
C    -1.9468380    2.5454195    0.3693064 
C    -0.6675704    2.1673778   -2.1631492 
C     1.4323862    1.4652423   -3.2707528 
C     1.6983413    0.0678432   -3.6487866 
C     0.0262728    1.6690794   -3.3216542 
C    -0.0262728   -1.6690794   -3.3216542 
C     0.5131687   -0.5207372   -4.0537447 
C    -0.5131687    0.5207372   -4.0537447 
C    -2.1896594   -1.7368034   -2.1254568 
C    -1.4323862   -1.4652423   -3.2707528 
C    -1.6983413   -0.0678432   -3.6487866 
C    -2.6792142    1.9305694   -0.7285809 
C    -2.0600654    1.6935627   -1.9528778 
C    -3.0434902   -0.5758024   -1.8538087 
C    -2.5199218    0.5076265   -2.6550073 
C    -3.4452197   -1.4178864    0.3776002 
C    -3.5347328   -1.1210263    1.7744041 
C    -3.6264194    0.2201966    2.2035832 
C    -3.6827564    1.2724239    1.2607864 
C    -3.6246477   -0.3656818   -0.5923623 
C    -3.6465703    1.0058749   -0.1299503 
