60 

C     0.0137927   -4.7341114   -0.0425388 
C    -1.1438082   -4.4694075    0.7033100 
C    -2.0404573   -3.6672419   -0.1051225 
C    -0.1149175   -4.0538614   -1.3229079 
C    -1.3846406   -3.3713978   -1.3714507 
C     1.0423322   -3.2616574   -1.5445604 
C     1.1354931   -4.0965360    0.6287806 
C     1.8592063   -3.3286697   -0.3164998 
C    -0.7714608   -3.6339291    1.8393249 
C     0.6629537   -3.3942750    1.8037937 
C    -2.4681019   -2.5525901    0.6759654 
C    -1.6554546   -2.5049855    1.8869972 
C    -2.8457116   -1.3543553    0.0615360 
C    -1.4949883   -2.0567028   -1.9177890 
C    -2.5141335   -1.1905030   -1.3442624 
C     0.9564924   -2.0180440   -2.2451329 
C    -0.3337644   -1.3908328   -2.4978042 
C     2.0954969   -1.1868063   -2.1162133 
C     2.5803334   -2.1908716    0.0936550 
C     2.9764254   -1.3400003   -0.9829233 
C     1.1607834   -2.1057865    2.1205425 
C     2.3155204   -1.5770187    1.3869070 
C    -1.2168617   -1.2543373    2.3658451 
C     0.2109065   -1.1224411    2.6675120 
C    -2.9255236   -0.1717785    0.9079876 
C    -2.0094088   -0.0738233    2.0296679 
C    -3.3923373    1.0149112    0.2827718 
C    -2.6582558    0.0960462   -1.8845603 
C    -3.3270241    1.0940902   -1.1449024 
C    -0.3673142    0.0509427   -2.8034658 
C    -1.5936483    0.7289015   -2.6481438 
C     2.0937384    0.2184012   -2.5012785 
C     0.8572561    0.8681672   -2.7906375 
C     3.5294032   -0.0716740   -0.7236575 
C     3.0951014    0.8735222   -1.7486431 
C     2.7329327   -0.2007358    1.5993687 
C     3.4129205    0.5345889    0.5404745 
C     0.6811640    0.1572592    2.9423074 
C     1.9984542    0.5892587    2.5237416 
C    -1.5144211    1.2387741    2.4158168 
C    -0.1997888    1.3145629    2.9465790 
C    -3.0005519    2.3050387    0.7699862 
C    -2.0141771    2.4301564    1.7501326 
C    -2.7876649    2.3980743   -1.5239211 
C    -1.6773096    2.1688492   -2.4033210 
C    -2.6449398    3.1705116   -0.3712971 
C     0.7741074    2.2605948   -2.4305759 
C    -0.5024662    2.9002919   -2.1870547 
C     2.8601036    2.1195358   -1.1290894 
C     3.1447941    1.9624471    0.2981181 
C     1.7475235    2.8641003   -1.5442722 
C     1.9396137    2.0123879    2.3923409 
C     0.6155787    2.4561299    2.6773985 
C     2.3953152    2.6917423    1.2121532 
C    -1.0873005    3.5063415    1.3143191 
C    -1.4092659    3.8195783   -0.0706459 
C    -0.3695307    3.7742886   -1.0291413 
C     1.0153019    3.6869388   -0.5947313 
C     0.2327952    3.4670187    1.7294935 
C     1.3293887    3.6009219    0.7697172 
