60 

C    -0.6365896   -5.1845955    1.1860978 
C     0.0620041   -5.5059529   -0.0252406 
C     1.4140429   -5.1233311    0.0613640 
C     0.2881451   -4.3599333    1.9907942 
C     1.5403430   -4.3332176    1.3168819 
C    -0.3528790   -3.0966623    2.2663180 
C    -1.7018524   -4.3179004    0.8190287 
C    -1.6412022   -3.0997597    1.5844587 
C    -0.5761296   -4.8149877   -1.1690823 
C    -1.7436628   -4.1691939   -0.6544370 
C     1.6418534   -4.1877379   -1.0006711 
C     0.4173976   -3.9924405   -1.8047721 
C     2.1013204   -3.0623562    0.9955064 
C     2.2065858   -3.0034042   -0.4700279 
C     0.3703292   -1.8682654    2.2720547 
C     1.6706388   -1.8621081    1.6347292 
C    -0.3685062   -0.6223504    2.2168833 
C    -2.1786964   -1.8758687    1.0825034 
C    -1.6807665   -0.6232071    1.6296877 
C    -2.0952640   -2.9221787   -1.1591216 
C    -2.5828889   -1.8603047   -0.2828543 
C     0.0956093   -2.6710864   -2.2667664 
C    -1.2582148   -2.2398528   -2.1313501 
C     2.0719316   -1.7518496   -1.1239991 
C     1.0706266   -1.5681153   -2.1382022 
C     2.1244222   -0.6251063    1.0605924 
C     2.4557127   -0.6109812   -0.3339799 
C     0.3685062    0.6223504    2.2168833 
C     1.6807665    0.6232071    1.6296877 
C    -0.3703292    1.8682654    2.2720547 
C    -2.1244222    0.6251063    1.0605924 
C    -1.6706388    1.8621081    1.6347292 
C    -2.4638679   -0.6315763   -0.9872423 
C    -1.5997193   -0.8349476   -2.1135234 
C    -2.4557127    0.6109812   -0.3339799 
C     0.7007976   -0.2020937   -2.4556303 
C    -0.7007976    0.2020937   -2.4556303 
C     2.4638679    0.6315763   -0.9872423 
C     1.5997193    0.8349476   -2.1135234 
C     2.1786964    1.8758687    1.0825034 
C     2.5828889    1.8603047   -0.2828543 
C     0.3528790    3.0966623    2.2663180 
C     1.6412022    3.0997597    1.5844587 
C    -0.2881451    4.3599333    1.9907942 
C    -2.1013204    3.0623562    0.9955064 
C    -1.5403430    4.3332176    1.3168819 
C    -2.0719316    1.7518496   -1.1239991 
C    -1.0706266    1.5681153   -2.1382022 
C    -2.2065858    3.0034042   -0.4700279 
C     1.2582148    2.2398528   -2.1313501 
C     2.0952640    2.9221787   -1.1591216 
C    -0.0956093    2.6710864   -2.2667664 
C     1.7018524    4.3179004    0.8190287 
C     0.6365896    5.1845955    1.1860978 
C     1.7436628    4.1691939   -0.6544370 
C    -1.4140429    5.1233311    0.0613640 
C    -1.6418534    4.1877379   -1.0006711 
C    -0.4173976    3.9924405   -1.8047721 
C    -0.0620041    5.5059529   -0.0252406 
C     0.5761296    4.8149877   -1.1690823 
