60 

C     1.6591806    4.0076726   -0.1044015 
C     0.4317372    4.2277265    0.5395970 
C    -0.6084088    4.0777209   -0.4612334 
C     1.3836107    3.5137222   -1.4928686 
C    -0.0088226    3.4784993   -1.6506988 
C     2.1814313    2.3440105   -1.7275679 
C     2.5726060    3.1415298    0.4663409 
C     3.0384019    2.2215103   -0.5940639 
C     2.2389865    2.3327364    1.5998633 
C     0.0510916    3.4515480    1.6907779 
C     0.9280949    2.4213128    2.2063662 
C    -1.7378676    3.4948581    0.1330747 
C    -1.3630914    3.1474793    1.5112272 
C    -2.5031201    2.5912011   -0.6178686 
C    -0.6322518    2.3236298   -2.2686503 
C    -1.9693042    2.0499494   -1.8723648 
C     1.6238316    1.1470893   -2.3170779 
C     0.2171571    1.1975733   -2.7097027 
C     2.2344418   -0.1342401   -1.9878816 
C     3.2910868    0.9778202   -0.0406948 
C     2.8066261    1.0280162    1.3456073 
C     3.0988140   -0.1881541   -0.8172257 
C     2.3393973   -0.1478496    1.9641919 
C     0.3436653    1.1748463    2.7411252 
C     1.0958718   -0.0916155    2.7195928 
C    -1.9109800    2.0197457    2.0782901 
C    -1.0734811    1.0730589    2.7927275 
C    -3.2207870    1.5316869    0.0305135 
C    -2.9505294    1.2598684    1.3903400 
C    -2.5517490    0.7445780   -2.0523157 
C    -3.3528546    0.4178898   -0.8935094 
C    -0.4244465   -0.0352739   -2.9872994 
C    -1.8137086   -0.2521838   -2.6811763 
C     1.5835270   -1.3915428   -2.3837028 
C     0.2528087   -1.3057421   -2.8745753 
C     1.9682857   -2.6439559   -1.7688807 
C     3.1816149   -1.3799239   -0.0537601 
C     2.7652343   -1.3627390    1.3481977 
C     2.8203535   -2.6160850   -0.6018749 
C     2.1204011   -2.6330999    1.6121436 
C     2.2560333   -3.4580674    0.4365648 
C     0.4045475   -1.3297646    2.8525187 
C     0.8930618   -2.5821531    2.2810012 
C    -1.7488163   -0.2003799    2.7473539 
C    -2.8922382   -0.0976999    1.8534320 
C    -1.0280901   -1.3802719    2.8183015 
C    -3.3898140   -0.8993189   -0.4271304 
C    -3.1741523   -1.1662550    0.9851768 
C    -1.9815630   -1.6452163   -2.3020562 
C    -0.7396138   -2.3238092   -2.5430564 
C    -2.7631744   -1.9696760   -1.1772699 
C     0.9961591   -3.6621123   -1.5161122 
C     1.1336797   -4.0818849   -0.1144949 
C    -0.3754007   -3.4328378   -1.7625615 
C    -0.2588199   -3.3318564    1.7553755 
C    -1.4309366   -2.5551367    2.0473668 
C    -2.4617915   -2.4206483    1.1013698 
C    -2.2651802   -2.9594161   -0.2362099 
C    -0.1517032   -4.0062597    0.5164898 
C    -1.1290422   -3.7121100   -0.5266408 
