60 

C     2.4518476   -3.5968850   -0.5339280 
C     1.3044987   -3.7087914   -1.4054528 
C     1.2188826   -2.5231002   -2.1790144 
C     3.0801810   -2.3358283   -0.7793013 
C     2.3813497   -1.6696532   -1.8209329 
C     3.2051866   -1.5924623    0.4491252 
C     1.9162183   -3.4968292    0.7763282 
C     2.3834944   -2.2922779    1.4222290 
C     0.1466458   -4.0354015   -0.6088911 
C     0.5065274   -3.7894322    0.7885010 
C    -1.1128592   -3.6356292   -1.0619511 
C    -0.0503064   -1.8918721   -2.4698148 
C    -1.2340870   -2.5399988   -2.0354964 
C    -0.0828172   -0.4674688   -2.7099657 
C     2.2864665   -0.2664339   -1.8609751 
C     1.1703410    0.3021912   -2.6110960 
C     3.2405047   -0.1878763    0.4168754 
C     2.9125864    0.5330088   -0.8065391 
C     2.8938663    0.4222891    1.6604466 
C     1.5149352   -1.5574786    2.2772967 
C     1.9314901   -0.2234136    2.5218553 
C    -0.3937648   -3.0903227    1.6583286 
C     0.0872703   -1.9055298    2.3991243 
C    -2.1131125   -3.4453550   -0.0963809 
C    -1.7808601   -3.1546276    1.2698266 
C    -2.4286423   -1.7781311   -1.7004057 
C    -3.0528946   -2.4250919   -0.5869940 
C    -1.3293364    0.2498611   -2.5307941 
C    -2.4346186   -0.3596819   -1.7939197 
C    -1.3169621    1.6650814   -2.6322888 
C     1.1190877    1.6936256   -2.7285166 
C    -0.1307466    2.3494664   -3.0062763 
C     2.6052905    1.9499489   -0.7384609 
C     1.8640976    2.5414769   -1.7918332 
C     2.6445050    1.8100793    1.7151556 
C     2.4953618    2.5901550    0.5678780 
C     1.0254048    0.7992114    3.0234763 
C     1.5371604    2.0645252    2.6426120 
C    -0.8356859   -0.8306762    2.7302184 
C    -0.3750151    0.5425085    2.9855715 
C    -2.6650355   -2.1091389    1.6585370 
C    -3.4798068   -1.6725523    0.4898435 
C    -2.2164223   -0.9687087    2.3161405 
C    -3.0787555    0.4331772   -0.7392252 
C    -3.4838722   -0.2635706    0.4438472 
C    -2.9186552    0.1788594    1.7131222 
C    -2.0705480    2.4950234   -1.6677853 
C    -2.7227725    1.8416757   -0.5888806 
C    -0.1243221    3.5986567   -2.3161533 
C     1.0451195    3.7112657   -1.5476977 
C    -1.2880116    3.6616992   -1.4376230 
C     1.3905066    3.5403453    0.8501490 
C     0.7401164    3.0815723    2.0919900 
C     0.6468606    4.0501018   -0.1859752 
C    -0.8413018    3.9962479   -0.1257479 
C    -1.1973585    1.6645884    2.5966511 
C    -2.4081195    1.4327072    1.8339069 
C    -2.4729268    2.3650185    0.7273638 
C    -0.6550415    2.9031506    2.1117453 
C    -1.4511450    3.3467006    0.9601718 
