60 

C     1.1510936    4.1177519   -0.9846249 
C     2.1245787    3.5716135   -0.1378267 
C     1.5814473    3.5495221    1.2221228 
C    -0.0755844    4.3338204   -0.1805249 
C     0.1808745    3.8838841    1.1592187 
C    -1.1661549    3.7959850   -0.9110997 
C     0.7969583    3.4032577   -2.1442866 
C    -0.6638390    3.2772583   -2.1681893 
C     1.3720495    2.1346202   -2.4405309 
C     2.7434146    2.3083873   -0.4040240 
C     2.3768863    1.5589488   -1.5749659 
C     2.0188060    2.3695912    1.8405732 
C     2.8112326    1.5971976    0.8615491 
C     1.1417544    1.6670912    2.6738624 
C    -0.7764397    3.0218103    1.8394697 
C    -0.2601113    1.9839102    2.6826446 
C    -2.1431133    3.0253261   -0.2383309 
C    -1.9980443    2.7007471    1.1586106 
C    -2.7217625    1.8648771   -0.8770298 
C    -0.9894660    1.9803378   -2.5823163 
C     0.2757341    1.2749916   -2.8415825 
C    -2.0697794    1.2527586   -1.9894141 
C     0.3708127   -0.1113616   -2.8127149 
C     2.5019837    0.1219839   -1.5377231 
C     1.6539468   -0.6871414   -2.4130155 
C     2.8912162    0.2097726    0.9223816 
C     3.0236467   -0.5213957   -0.3412242 
C     1.2883477    0.2459197    2.8234669 
C     2.2232411   -0.4758788    2.0540191 
C    -0.9746024    0.7376657    2.9374030 
C    -0.0230751   -0.3193886    3.0826403 
C    -2.7240777    1.4598018    1.4195334 
C    -3.2635638    1.0228402    0.1601247 
C    -2.2444257    0.4762791    2.3423438 
C    -3.4913233   -0.3246538   -0.0906382 
C    -2.0641761   -0.2088811   -2.1182388 
C    -0.8756616   -0.8849365   -2.6503266 
C    -2.9275210   -0.9558767   -1.2793321 
C    -0.7525833   -2.2852433   -2.4749298 
C     1.7382250   -2.0937167   -2.3249280 
C     0.5350975   -2.8837655   -2.4344419 
C     3.0455132   -1.9392807   -0.2710943 
C     2.5456607   -2.7181817   -1.3369225 
C     2.0321758   -1.8897027    1.9778919 
C     2.6413075   -2.6167812    0.9547628 
C    -0.3195215   -1.6919461    2.7544369 
C     0.7483274   -2.5198876    2.3030968 
C    -2.5927838   -0.9027493    2.1203530 
C    -3.3444999   -1.2510252    0.9768398 
C    -1.6299212   -1.9850213    2.3099404 
C    -2.6486353   -2.3574501   -0.9425821 
C    -1.5857023   -3.0189203   -1.5319496 
C    -2.8668225   -2.5212290    0.4530714 
C    -1.8266031   -3.0073328    1.2756025 
C     0.5401018   -3.9494382   -1.4546785 
C     1.7625692   -3.8585839   -0.7691804 
C     1.7843019   -3.7465413    0.6229661 
C     0.5522128   -3.6029006    1.3684173 
C    -0.7118127   -3.8803590   -0.7432478 
C    -0.7219103   -3.7383804    0.7045720 
