60 

C    -1.6072502   -4.3693409   -0.4432958 
C    -0.4454547   -4.3655742   -1.3230863 
C     0.6846733   -4.5766836   -0.5059524 
C    -1.1113396   -4.2270315    0.9403797 
C     0.2614960   -4.4162699    0.9403718 
C    -1.6526846   -3.0129107    1.5164390 
C    -2.3607734   -3.2346987   -0.7081466 
C    -2.5433574   -2.4672621    0.5202035 
C    -0.4877237   -3.1561784   -2.1258689 
C    -1.7453230   -2.5013685   -1.8126853 
C     0.6618868   -2.2996057   -2.2815268 
C     1.8235215   -3.8045461   -0.6796791 
C     1.8708180   -2.7079462   -1.5933033 
C     1.1340977   -3.4554945    1.5535311 
C     2.2104524   -3.2484472    0.6369249 
C    -0.8348434   -2.0826907    2.2378722 
C     0.6140255   -2.2871306    2.2448457 
C    -1.3683807   -0.7354497    2.3982223 
C    -2.8172746   -1.1079222    0.4358353 
C    -2.4885586   -0.2826411    1.5852086 
C    -1.9133452   -1.1231271   -1.8922597 
C    -2.7763239   -0.4878299   -0.8904345 
C     0.4610432   -0.8705042   -2.5197677 
C    -0.8652024   -0.2979637   -2.4746207 
C     1.5848676    0.0563394   -2.3116931 
C     2.6667868   -1.6777499   -0.9559668 
C     2.8058134   -2.0056751    0.4563518 
C     2.6298455   -0.3479754   -1.3638305 
C     1.4715166   -1.1140254    2.3306529 
C     2.6052893   -0.9734369    1.4188319 
C    -0.5068029    0.2771898    2.8939093 
C     0.9132684    0.1026610    2.8151510 
C    -0.7961604    1.6945988    2.7434545 
C    -2.7858614    1.0951868    1.4865961 
C    -1.9473572    2.1150783    2.0974288 
C    -2.9651618    0.8834461   -0.9571802 
C    -3.2069471    1.6234257    0.2330816 
C    -1.0632499    1.1445861   -2.5254799 
C    -2.1825966    1.7282857   -1.8656713 
C     1.4111256    1.4282593   -2.4988627 
C     0.0808966    1.9952928   -2.7315637 
C     2.1818765    2.4228133   -1.7571884 
C     3.1134179    0.6140664   -0.4193333 
C     3.0095706    0.3106391    0.9999588 
C     2.8965686    2.0069497   -0.6125205 
C     1.5121194    1.4023841    2.5584430 
C     0.4663688    2.4059584    2.5505498 
C     2.5667971    1.5105545    1.6450727 
C     2.5931707    2.6053592    0.6873631 
C     0.5416995    3.5207855    1.7146682 
C     1.6618331    3.6460590    0.7804604 
C    -1.8893267    3.2782190    1.2025402 
C    -2.6564128    2.9425912    0.0532218 
C    -2.1033141    3.0500839   -1.2753440 
C    -0.6704861    3.9817262    1.0202655 
C     0.0857431    3.3365150   -2.3060100 
C     1.3897377    3.6044635   -1.6778149 
C     1.1396613    4.2093214   -0.4393964 
C    -0.9545030    3.8486465   -1.4577766 
C    -0.3039730    4.3959944   -0.2915763 
