60 

C     1.3575605    4.1531005   -0.7786743 
C     1.0608296    4.0462265    0.6129157 
C     1.9112494    3.0451862    1.2045100 
C     2.2884109    3.1346518   -1.1058590 
C     2.7076663    2.4896149    0.1184423 
C     1.6774911    2.2737021   -2.0847741 
C     0.1264106    3.8907709   -1.4891852 
C     0.3129165    2.7572461   -2.3361681 
C    -0.3702101    3.9586475    0.7929117 
C    -0.9681012    3.8966798   -0.5574065 
C    -0.8776623    3.1203930    1.7873222 
C     1.3892640    2.1666505    2.2009655 
C     0.0012650    2.2461403    2.5423883 
C     1.9873744    0.8741176    2.3120976 
C     3.0738213    1.1294946    0.0995379 
C     2.9107138    0.4024434    1.3185945 
C     1.9875136    0.8978413   -2.1482501 
C     2.9122037    0.3634561   -1.1431834 
C     1.0089711    0.0048658   -2.7689755 
C    -0.7381074    1.8169683   -2.5428718 
C    -0.3826384    0.4379230   -2.8765077 
C    -2.0342867    3.0332744   -0.7908188 
C    -1.9809348    2.0722966   -1.8717488 
C    -2.1300211    2.3997477    1.5859748 
C    -2.7188528    2.3771995    0.3231212 
C    -0.7364600    1.0531173    2.8909459 
C    -2.0698180    1.1721038    2.3578743 
C     1.2837899   -0.2748085    2.8368612 
C    -0.1245161   -0.2363815    3.0401280 
C     2.9233970   -1.0395447    1.3598704 
C     1.9351112   -1.4680276    2.3460983 
C     3.0769181   -1.0340060   -1.0747181 
C     3.1121346   -1.7635194    0.1994360 
C     1.2872758   -1.3914521   -2.7405932 
C     2.3837979   -1.8667605   -1.9813976 
C     0.2410478   -2.4003952   -2.6197040 
C    -1.3857796   -0.5661171   -2.7491734 
C    -1.0711261   -1.9699022   -2.5700386 
C    -2.8506083    0.9739033   -1.5245921 
C    -3.3067751    1.1438654   -0.1641756 
C    -2.6031185   -0.3053254   -2.0175906 
C    -2.7555786    0.0267977    1.9487924 
C    -3.4237417    0.0210754    0.6635260 
C    -0.9039746   -1.4485921    2.7562910 
C    -2.2095371   -1.2892819    2.1923189 
C     1.2365138   -2.6476501    2.1751796 
C    -0.2024244   -2.6624774    2.4249612 
C     2.4244015   -3.0508492    0.0265219 
C     2.0217324   -3.1277545   -1.3364796 
C     0.6969889   -3.4652864   -1.7193025 
C     1.5299146   -3.5091586    1.0211869 
C    -0.7585855   -3.5871360    1.5034914 
C    -0.1886394   -3.9706730   -0.7322178 
C     0.2869982   -4.0694667    0.6106935 
C    -2.0076452   -2.5414716   -1.6045364 
C    -2.9211598   -1.4794715   -1.2246571 
C    -3.2919653   -1.3107178    0.1179133 
C    -2.6638612   -2.1542037    1.1193652 
C    -1.5664447   -3.4803214   -0.6737968 
C    -1.9111100   -3.2687491    0.7371597 
