60 

C    -1.9213084    3.8145482    0.8390284 
C    -2.8174086    2.9570839    0.1316293 
C    -3.0101316    1.7544711    0.9036544 
C    -1.4197259    3.0951219    1.9829776 
C    -2.1130153    1.8340559    2.0505146 
C     0.0083247    3.1212567    1.9592861 
C    -0.8213131    4.1650331    0.0108441 
C     0.3785682    3.8968055    0.7637157 
C    -2.2883269    2.8212130   -1.2027591 
C    -0.9951180    3.5048792   -1.2715631 
C    -2.4173943    1.5998755   -1.8278547 
C    -3.2167185    0.5048354    0.2633355 
C    -3.1029740    0.4985165   -1.1650899 
C    -2.8752816   -0.7174887    0.9928181 
C    -1.4434335    0.6902868    2.5239300 
C    -2.0106899   -0.6196559    2.1668674 
C     0.7504143    1.9663484    2.3318747 
C    -0.0142529    0.8197953    2.8256059 
C     2.0813315    1.7454868    1.7404233 
C     1.5012463    3.5231818    0.0787997 
C     2.4699809    2.6246002    0.6768989 
C     0.1089333    2.8774131   -1.9214429 
C     1.4014510    3.1637929   -1.3513239 
C    -1.3496882    1.0140792   -2.6108677 
C    -0.0470139    1.5658440   -2.5982273 
C    -2.7281885   -0.6900445   -1.8418640 
C    -1.5784193   -0.4054600   -2.6811966 
C    -2.8910486   -1.9442691    0.2748950 
C    -2.8263443   -1.9206590   -1.1849509 
C    -2.1417545   -3.1171356    0.7022592 
C    -1.2946567   -1.7787656    2.5747942 
C    -1.3076917   -3.0281117    1.8138082 
C     0.6943805   -0.3751483    3.0477228 
C     0.0106776   -1.6194875    3.0991805 
C     2.6757430    0.3940322    1.7570134 
C     1.9961506   -0.6141802    2.4638996 
C     3.4823059   -0.0621815    0.6349450 
C     3.2537206    2.1226520   -0.4091709 
C     2.4936508    2.3589175   -1.6552348 
C     3.7447139    0.8375351   -0.4366561 
C     1.0730008    0.6172715   -2.7170174 
C     2.3706923    1.0928152   -2.3304816 
C     3.2946157    0.2097453   -1.6889892 
C    -0.5227368   -1.3502752   -2.7853255 
C     0.8396454   -0.8336801   -2.6875861 
C    -2.0207960   -2.9847334   -1.6437353 
C    -1.6602184   -3.7999513   -0.4814520 
C    -0.8269968   -2.7080783   -2.3841451 
C    -0.3293423   -4.1831626   -0.5938713 
C     0.1994360   -3.5305982   -1.7948640 
C     0.0758219   -3.5359571    1.7471045 
C     0.8605304   -2.6530900    2.5381811 
C     2.0330295   -2.0257350    2.0567441 
C     0.5899191   -3.9665372    0.4928913 
C     3.1857692   -1.3369058    0.0371245 
C     2.9509652   -1.1063484   -1.4003832 
C     1.8232374   -1.6989063   -2.0297555 
C     1.4249427   -2.9583252   -1.4656089 
C     2.4849830   -2.3485979    0.7290040 
C     1.7338067   -3.2780233   -0.0503540 
