60 

C    -1.5103992    4.4027696    0.0626953 
C    -2.4146490    3.5311594   -0.6544530 
C    -3.0645298    2.7235461    0.2880195 
C    -1.3900464    3.8736648    1.4395455 
C    -2.3805591    2.9077728    1.6047578 
C    -0.0210459    3.4947960    1.6911722 
C    -0.2505864    4.2722640   -0.5205886 
C     0.7174804    3.9692848    0.5179086 
C    -1.6533806    2.8380284   -1.6944622 
C    -0.3023272    3.3468534   -1.6636934 
C    -1.8523507    1.4631593   -1.9608880 
C    -3.2324972    1.3476410    0.0748505 
C    -2.8055439    0.7172705   -1.1356480 
C    -2.0707069    1.6183216    2.0988791 
C    -2.8112558    0.6682864    1.2850415 
C     0.3368766    2.2095936    2.2304686 
C    -0.7363637    1.2446844    2.4810476 
C     1.6978646    1.6976690    1.9723201 
C     1.8756170    3.3668823    0.1523166 
C     2.5201608    2.4293177    1.0522097 
C     0.8270772    2.5396636   -1.9639867 
C     2.0364730    2.8378307   -1.2157520 
C    -0.7298939    0.6981672   -2.5148733 
C     0.6411236    1.1729449   -2.4338636 
C    -0.9469599   -0.6732359   -2.7218403 
C    -2.8088989   -0.7176483   -1.1428561 
C    -2.1082426   -1.3494608   -2.2121853 
C    -2.5503845   -0.6921397    1.3110952 
C    -2.8950239   -1.4597871    0.1165299 
C    -0.4554399   -0.1732518    2.5721189 
C    -1.5020357   -1.1362369    2.2114374 
C     1.9971931    0.2731234    2.1734640 
C     0.9237604   -0.6380440    2.5626137 
C     3.1177026   -0.3082534    1.4669357 
C     3.4789310    1.7526564    0.2481548 
C     3.0626087    1.9119967   -1.1657589 
C     3.7824252    0.4337064    0.4563026 
C     1.7379514    0.1813066   -2.3282178 
C     2.9692527    0.6028008   -1.7403271 
C     3.6213503   -0.2971662   -0.8298026 
C     0.1500047   -1.6478739   -2.7352940 
C     1.4403134   -1.2487839   -2.2814389 
C    -1.7934365   -2.7445673   -2.1587970 
C    -0.3579924   -2.9183655   -2.4551351 
C    -2.6029990   -2.8504562    0.1369685 
C    -2.0952582   -3.5061949   -1.0561057 
C    -1.2325787   -2.5341921    2.2044995 
C    -1.8512019   -3.3682552    1.2236599 
C     1.1535621   -2.0557771    2.4222959 
C     0.1093358   -2.9870701    2.3827495 
C     2.9998570   -1.6458719    0.9148334 
C     3.1338078   -1.5644100   -0.5492965 
C     2.1127304   -2.1621425   -1.3592650 
C     2.1309207   -2.5340861    1.4457850 
C     0.2199201   -3.7878314   -1.4692331 
C    -0.8883239   -4.3006649   -0.6892530 
C    -0.8181191   -4.3053370    0.6975916 
C     0.3917285   -4.0084569    1.3559991 
C     1.4276991   -3.3454023   -0.8199493 
C     1.5193026   -3.5661987    0.6186971 
