60 

C     0.2468623   -4.4464348    1.0720038 
C     0.6222038   -4.5515177   -0.2852853 
C     1.7836695   -3.7621910   -0.4949787 
C     1.1701678   -3.5572136    1.7435094 
C     2.1658354   -3.1409039    0.7872863 
C     0.4093653   -2.5157514    2.3532178 
C    -1.0542835   -3.8229448    1.1212936 
C    -1.0066630   -2.7013727    2.0140283 
C    -0.4691095   -4.0015881   -1.1138382 
C    -1.5482336   -3.6074535   -0.2200162 
C     1.5050512   -2.8655347   -1.5804265 
C     0.0722885   -2.9925414   -1.9365139 
C     2.1100154   -1.6225108   -1.6444695 
C     2.6294685   -1.8205362    0.7893719 
C     2.9473167   -1.2120783   -0.5071380 
C     0.9083995   -1.1980594    2.4548332 
C     2.1593502   -0.8719862    1.8023303 
C    -0.0614258   -0.1421294    2.7376442 
C    -1.8442804   -1.5932364    1.8061924 
C    -1.4589148   -0.3046136    2.3762920 
C    -2.3084636   -2.4686061   -0.4919832 
C    -2.7184531   -1.6203359    0.6312712 
C    -0.6832357   -1.8240434   -2.2654089 
C    -2.0418547   -1.7452843   -1.7449250 
C     1.4612203   -0.5564197   -2.4261448 
C     0.0110358   -0.6008609   -2.6093461 
C     2.1136505    0.6704571   -2.4855206 
C     3.5032989    0.0554439   -0.5419315 
C     3.3313067    0.8781656   -1.7023156 
C     2.5967054    0.5085179    1.7345161 
C     3.4517930    0.9285599    0.6562424 
C     0.4677923    1.1689275    2.8827507 
C     1.7937284    1.5006586    2.3654918 
C    -0.3752431    2.2899865    2.7311443 
C    -2.2766981    0.8702925    2.0868146 
C    -1.6982094    2.1683816    2.2365532 
C    -3.4795957   -0.4847353    0.3439189 
C    -3.3305376    0.7484490    1.1170967 
C    -2.7667629   -0.5831206   -1.9866176 
C    -3.7725452   -0.1391910   -1.0283922 
C    -0.7218151    0.6528598   -2.6708868 
C    -2.1238091    0.6030701   -2.4998894 
C     1.3564719    1.9271784   -2.4447383 
C    -0.0429587    1.9212472   -2.3743813 
C     3.3435906    2.2148324   -1.2670471 
C     3.3992084    2.2624340    0.1789331 
C     2.1212265    2.8541337   -1.6611339 
C     1.7080038    2.8482832    1.8232159 
C     0.3547621    3.2866577    1.9797234 
C     2.3607296    3.1508484    0.6298526 
C     1.5280702    3.5151869   -0.5406288 
C    -1.7913332    3.1296386    1.1414851 
C    -0.6920234    2.9121014   -1.4956357 
C    -0.4543815    3.6484076    0.8790230 
C     0.1114303    3.5743823   -0.4499427 
C    -3.6045136    1.8190569    0.2187353 
C    -3.8768265    1.2617409   -1.0983866 
C    -2.8206061    1.7380930   -1.9413582 
C    -2.6424402    2.8778574    0.0871757 
C    -2.0788017    2.7673451   -1.2726666 
