60 

C     0.3366719   -4.2850114    0.4147639 
C    -0.3974006   -4.1953003   -0.7798057 
C    -1.7228320   -3.7018552   -0.4483724 
C    -0.5146664   -3.8312111    1.5012383 
C    -1.7827579   -3.4089996    0.9581716 
C     0.2604965   -2.9244252    2.2658999 
C     1.6237889   -3.6483755    0.5301388 
C     1.6056380   -2.7860906    1.7048996 
C     2.2336902   -3.1692985   -0.6463048 
C     0.1012394   -3.4044398   -1.8755565 
C     1.4209746   -2.9697815   -1.8639970 
C    -2.0912000   -2.7084993   -1.3968845 
C    -0.9429389   -2.4541919   -2.2636348 
C    -2.8912299   -1.6361232   -0.9938938 
C    -2.3763744   -2.1651243    1.3842694 
C    -3.0608302   -1.3596960    0.4272940 
C    -0.3553559   -1.7787016    2.7845161 
C    -1.7087602   -1.4193188    2.4211738 
C     0.4013710   -0.5735369    3.0177929 
C     2.2825440   -1.5203441    1.7361615 
C     1.6877658   -0.3761073    2.4529431 
C     3.0915896   -2.0520805   -0.5273237 
C     3.1273412   -1.2216844    0.6203375 
C     1.7388674   -1.6442677   -2.3865080 
C     2.8695936   -1.1755549   -1.6616636 
C    -0.6618037   -1.1377145   -2.7218079 
C     0.7376023   -0.7014207   -2.7745894 
C    -2.7974504   -0.3957237   -1.6789730 
C    -1.7113846   -0.1328993   -2.5708193 
C    -3.1916306    0.0707525    0.5714329 
C    -3.2015609    0.6431192   -0.7383561 
C    -1.8313694    0.0064328    2.5527855 
C    -0.5589327    0.4950282    3.0666214 
C    -2.5602030    0.8046552    1.6340540 
C    -0.1631645    1.7895560    2.8944842 
C     2.0729452    1.0113681    2.1415727 
C     1.2179853    2.0671617    2.5688690 
C     3.2371129    0.1618575    0.1507526 
C     3.0306089    0.1639063   -1.2795703 
C     2.8458948    1.2684673    0.9185414 
C     1.0615397    0.7319868   -2.6736586 
C     2.2417279    1.1686780   -1.9002839 
C    -1.3716397    1.2373103   -2.7683417 
C     0.0109706    1.6660406   -2.8157693 
C    -2.8547818    1.9723198   -0.9581208 
C    -2.1030502    2.2743783   -2.1157188 
C    -2.1480812    2.2140306    1.4077891 
C    -1.0227573    2.7334669    2.1710614 
C    -2.3708826    2.8133006    0.1396085 
C     1.2042389    3.3517632    1.9143256 
C    -0.1944628    3.7527448    1.6758937 
C     2.6383684    2.4815388    0.1669141 
C     2.2470705    2.4097292   -1.2298138 
C     1.9116581    3.5690886    0.7445140 
C     0.0952285    3.0276454   -2.2538685 
C    -1.1999781    3.3614863   -1.7836984 
C    -1.4256031    3.7815913   -0.4329482 
C    -0.3165223    4.2247897    0.3199753 
C     1.2010822    3.3963026   -1.4589730 
C     0.9939993    4.1272813   -0.2595398 
