60 

C    -1.1218646   -4.6731394    0.1270220 
C     0.2192355   -4.7966312   -0.1705382 
C     1.0197928   -4.2542226    0.9037538 
C    -1.2232054   -3.9303177    1.4041189 
C     0.1031941   -3.6079185    1.8544681 
C    -2.0909503   -2.8439780    1.1868628 
C    -1.7066735   -3.8320048   -0.8987381 
C    -2.4407916   -2.8259985   -0.2642156 
C     0.5362390   -4.0505920   -1.4136640 
C    -0.6653431   -3.4106879   -1.8632625 
C     2.0105438   -3.4562418    0.2953357 
C     1.6670090   -3.2608127   -1.1534599 
C     2.4896119   -2.3595178    0.9873522 
C     0.4027552   -2.2754648    2.3438163 
C     1.7155351   -1.7928213    2.0951232 
C    -1.9160797   -1.5865114    1.8345899 
C    -0.6382655   -1.2472333    2.4487834 
C    -2.7203946   -0.5487814    1.3163494 
C    -2.6705408   -1.5938341   -0.9147323 
C    -3.1785773   -0.5736935   -0.0859251 
C    -0.6257547   -2.0566877   -2.2940331 
C    -1.8167463   -1.2195953   -2.0377458 
C     1.8014427   -1.9591997   -1.7173412 
C     0.6573857   -1.3686721   -2.3990996 
C     3.0988361   -1.2869136    0.2883102 
C     2.7907257   -1.0765752   -1.1115743 
C     2.0447614   -0.4086006    2.1677468 
C     3.0725060   -0.1463056    1.1707793 
C    -0.3002521    0.1625729    2.5984245 
C     1.0894965    0.5905934    2.4793965 
C    -2.5503071    0.7927784    1.7084283 
C    -1.3436783    1.1797063    2.3932238 
C    -3.2555245    0.7651009   -0.5209831 
C    -3.0846760    1.6334136    0.6382473 
C    -1.7953453    0.1395871   -2.3747931 
C    -2.6269833    1.1236820   -1.7300486 
C     0.6750478    0.0661618   -2.6881834 
C    -0.5564215    0.7974384   -2.7653365 
C     2.9033294    0.2482097   -1.5803340 
C     1.8269854    0.8359243   -2.3953653 
C     3.2863834    1.1222746    0.6719757 
C     3.4057600    1.2777883   -0.7490933 
C     1.4287526    1.9783976    2.1079549 
C     2.5162148    2.2255359    1.2073422 
C    -1.0021260    2.5584002    2.3057227 
C     0.4032154    2.9739342    2.1445919 
C    -2.6568893    2.9294626    0.4903266 
C    -1.7909676    3.4624883    1.5136743 
C    -1.9676425    2.4051694   -1.8272982 
C    -0.6628605    2.1894827   -2.4566849 
C    -2.1102888    3.3655639   -0.8193556 
C     1.7418788    2.2487285   -2.1064401 
C     2.7050194    2.4901701   -1.0742478 
C     2.3370769    3.1880334    0.1118439 
C     0.4905258    2.9528689   -2.0585155 
C     0.4403299    4.1209465    1.2896268 
C    -0.9028963    4.3915758    0.8967919 
C    -0.9988855    4.2272241   -0.5278121 
C     1.2273616    4.0200088    0.0838779 
C     0.3139804    3.9797301   -1.0670398 
