60 

C    -1.1929213   -4.4375057   -0.8069244 
C     0.0915652   -4.3190101   -1.4465740 
C     1.0868270   -4.4707974   -0.4371238 
C    -0.9667429   -4.3167316    0.6385532 
C     0.4034666   -4.4109996    0.8945849 
C    -1.6948708   -3.1676243    1.1269308 
C    -1.9788071   -3.3355552   -1.1870139 
C    -2.4238803   -2.6240249   -0.0149028 
C     0.0916548   -3.0965936   -2.2341876 
C    -1.2479246   -2.5369888   -2.1575062 
C     1.1762831   -2.1603197   -2.1751465 
C     2.1541047   -3.5847201   -0.3851868 
C     2.2588510   -2.4598009   -1.2613853 
C     1.0554189   -3.4079547    1.6863382 
C     2.2428481   -3.0322998    0.9844784 
C    -1.1186230   -2.2323208    2.0315037 
C     0.3153766   -2.3349826    2.3070160 
C    -1.7886234   -0.9338058    2.1478137 
C    -2.7612213   -1.2701374   -0.1073327 
C    -2.7234196   -0.4843045    1.1158855 
C    -1.4967217   -1.1644858   -2.2512379 
C    -2.5320912   -0.5995073   -1.3832726 
C     0.9200879   -0.7601809   -2.4698691 
C    -0.4256781   -0.2706609   -2.6577305 
C     1.9214661    0.2321702   -2.0810603 
C     2.8056571   -1.3641222   -0.4804774 
C     2.7041366   -1.7139787    0.9285099 
C     2.7175339   -0.0442899   -0.8841632 
C     1.0269255   -1.1007761    2.5886238 
C     2.2164665   -0.7352974    1.8326453 
C    -1.1609267    0.0620802    2.9189999 
C     0.2721513   -0.0275549    3.1321901 
C    -1.4834732    1.4794128    2.7778317 
C    -3.0462865    0.8881226    1.0086252 
C    -2.3860449    1.9024608    1.8183711 
C    -2.7643962    0.7760831   -1.4365087 
C    -3.2201288    1.4584277   -0.2815047 
C    -0.6906688    1.1648724   -2.7348502 
C    -1.9037281    1.6793652   -2.1976388 
C     1.7408801    1.5706292   -2.4272430 
C     0.4145982    2.0712119   -2.8231981 
C     2.3760211    2.5991892   -1.6602829 
C     2.8722138    0.9986012    0.1358640 
C     2.5025725    0.6530259    1.5120673 
C     2.7589222    2.3328728   -0.2962698 
C     0.8067579    1.2815311    3.1425797 
C    -0.2678569    2.2300814    2.9337903 
C     1.8805746    1.6584004    2.2988166 
C     2.0589288    3.3380388    0.5155697 
C     0.1340810    3.2603354    2.0600251 
C     1.5385384    2.9636702    1.7330740 
C    -2.0653626    3.0625790    0.9698273 
C    -2.6349197    2.7789496   -0.2949136 
C    -1.9146096    2.9677418   -1.5214954 
C    -0.7740848    3.7191630    1.0295505 
C     0.3141795    3.4177028   -2.3733288 
C     1.5471766    3.7653939   -1.7127103 
C     1.2353803    4.1344550   -0.3808370 
C    -0.7762062    3.7766733   -1.5008984 
C    -0.2014275    4.1740909   -0.2072914 
