60 

C    -2.2883378   -3.4204113    0.6894107 
C    -1.0078868   -3.9098266    0.7081929 
C    -0.4739869   -3.8998855   -0.6811348 
C    -2.6139552   -3.1224390   -0.7394679 
C    -1.3887497   -3.2053354   -1.5120072 
C    -3.3800897   -1.9907187   -0.7505529 
C    -2.6382389   -2.2661011    1.4682484 
C    -3.5276582   -1.4926173    0.6244675 
C    -1.6265831   -1.5822112    2.2285054 
C    -0.0020756   -3.3640727    1.5491057 
C    -0.2771456   -2.1676742    2.3050255 
C     0.8804749   -3.5899440   -0.6295334 
C     1.2348475   -3.4606618    0.7999959 
C     1.4382161   -2.6753118   -1.5867813 
C    -0.9228501   -2.0579122   -2.2687742 
C     0.5152457   -1.8236460   -2.3495320 
C    -3.0515969   -0.8768447   -1.5960172 
C    -1.8483889   -0.9097615   -2.3858065 
C    -3.4850245   -0.1115012    0.5683648 
C    -3.3667764    0.3053473   -0.8487230 
C    -1.7816417   -0.1222870    2.3842624 
C    -2.7593140    0.6170151    1.5641985 
C    -0.6838904    0.6345425    2.8601015 
C     0.8663876   -1.2891647    2.5693970 
C     0.6340780    0.0786673    2.8753376 
C     2.3268388   -2.6968279    1.1355671 
C     2.1631405   -1.5778528    2.0536653 
C     2.7474484   -2.1909773   -1.2506341 
C     3.2022921   -2.2832524    0.0969137 
C     3.2288140   -0.9288412   -1.7531543 
C     1.0019395   -0.4770071   -2.7295021 
C     2.3473047   -0.0582782   -2.3803209 
C    -1.3226603    0.3673822   -2.7192173 
C     0.0866007    0.5697996   -2.9159634 
C    -2.8236467    1.5558465   -1.1686187 
C    -1.8718852    1.5992228   -2.2258686 
C    -2.5597340    1.9876075    1.2849944 
C    -2.6724554    2.5012096   -0.0856645 
C    -0.5578241    2.0757726    2.6542350 
C    -1.5405664    2.7728154    1.9516572 
C     1.5731575    1.1344727    2.5284659 
C     0.8477339    2.3730891    2.4287564 
C     3.0750387   -0.5227958    1.6372325 
C     3.7641826   -0.9875891    0.4781014 
C     3.8809208   -0.1884427   -0.6632696 
C     2.7080231    0.8593753    1.7246335 
C     2.5876440    1.2992240   -1.8431758 
C     3.4049887    1.1426836   -0.6588984 
C     2.9630438    1.7535563    0.5703445 
C     0.3958256    1.9736685   -2.6002700 
C    -0.8141475    2.6077575   -2.2221683 
C     1.6227337    2.3025142   -1.9349089 
C    -1.8180729    3.6084038   -0.2235100 
C    -1.1465871    3.8349924    1.0629890 
C    -0.8229769    3.6657115   -1.2679308 
C     1.2231691    3.3185676    1.4542969 
C     2.1672834    2.9115399    0.4347972 
C     1.5813562    3.2779886   -0.8633192 
C     0.1928306    4.0879990    0.8105551 
C     0.4131865    4.0334198   -0.6470934 
