60 

C     2.3314798   -3.6450928    0.3547921 
C     1.0274719   -3.9448368    0.8888081 
C     0.0812734   -3.8879448   -0.1609643 
C     2.1752273   -3.2475739   -1.0216197 
C     0.8111122   -3.3776480   -1.3581380 
C     2.7848314   -1.9390768   -1.1996613 
C     2.8026557   -2.5057041    1.0384868 
C     3.2312267   -1.4994094    0.1001458 
C     0.7967976   -3.1060109    2.0495657 
C     1.8946597   -2.1357775    2.1116310 
C    -0.4877337   -2.6604290    2.3018532 
C    -1.2616058   -3.4711316    0.0889364 
C    -1.5824196   -2.9648624    1.3969119 
C    -1.9778811   -2.9145413   -1.0218161 
C     0.1738870   -2.4398503   -2.2457815 
C    -1.2353086   -2.3786736   -2.1836016 
C     2.2424264   -0.9882652   -2.1022118 
C     0.9325043   -1.2511920   -2.7073370 
C     2.6417291    0.3608137   -1.8716018 
C     3.1953090   -0.1448823    0.4743298 
C     3.1821431    0.7850879   -0.6031194 
C     1.6756635   -0.7763778    2.4122556 
C     2.5146089    0.2328411    1.7269291 
C    -0.6982266   -1.3285106    2.8371570 
C     0.3484236   -0.3691837    2.9067998 
C    -2.5751668   -1.9253523    1.5655440 
C    -2.0433355   -0.9380250    2.4948457 
C    -3.0812576   -2.0703845   -0.8018014 
C    -3.3432165   -1.4868108    0.4811816 
C    -1.9472746   -1.1986819   -2.6283882 
C    -3.0710318   -0.9993979   -1.7809114 
C     0.2008732   -0.1256563   -3.1566587 
C    -1.2354733   -0.0755132   -3.0372350 
C     1.9146934    1.4881813   -2.4119572 
C     0.6859615    1.2341351   -3.0026483 
C     2.8564956    2.1684637   -0.3977908 
C     2.0912845    2.6400600   -1.5442735 
C     2.2126026    1.5833692    1.9024409 
C     2.5308605    2.6014833    0.9000657 
C    -0.0229036    1.0372679    2.9188015 
C     0.9807137    2.0156940    2.5884878 
C    -2.3626362    0.4060891    2.3630776 
C    -1.3802335    1.4056940    2.6700231 
C    -3.5507522   -0.0525640    0.2639789 
C    -3.3091502    0.2410653   -1.1461007 
C    -3.1211483    0.8634432    1.2098747 
C    -1.6255481    1.2519467   -2.5890871 
C    -0.4523253    2.0912233   -2.6799828 
C    -2.5786365    1.4214952   -1.5412958 
C     1.0333501    3.5412703   -1.3518429 
C    -0.2939347    3.1940542   -1.8596829 
C     1.5775823    3.6537901    1.0474742 
C     0.6310534    3.2852263    2.1085614 
C     0.8441272    4.1169515   -0.0510239 
C    -1.6830950    2.5809885    1.8646242 
C    -2.5982014    2.1594656    0.8234349 
C    -2.3232853    2.4723230   -0.5451568 
C    -1.2728430    3.4308820   -0.7893239 
C    -0.7052205    3.5407529    1.6177074 
C    -0.5831835    4.0453024    0.2822879 
