60 

C    -3.4030581   -1.0877511   -1.7986509 
C    -3.9597016   -0.3812783   -0.6807009 
C    -3.6688718   -1.1676256    0.5097678 
C    -2.6773780   -2.2227669   -1.2730549 
C    -2.7644664   -2.2651516    0.1343599 
C    -1.4318937   -2.3621104   -1.9347494 
C    -2.5480599   -0.4662489   -2.7505710 
C    -1.3294806   -1.2928080   -2.8965217 
C    -2.4117374    0.9292654   -2.7273587 
C    -3.7911309    1.0249633   -0.6375604 
C    -3.1135467    1.6566307   -1.7181481 
C    -3.2758550    1.6480567    0.5939357 
C    -3.4440327   -0.5303715    1.7254816 
C    -3.1815996    0.9224699    1.7522866 
C    -2.5339894   -1.1122473    2.6359454 
C    -1.5836001   -2.5849480    0.9122062 
C    -1.5607558   -2.0735371    2.2480246 
C    -0.2825676   -2.8003854   -1.2122227 
C    -0.3109917   -2.8632335    0.2434778 
C     0.9392700   -2.5541729   -1.8897003 
C    -0.0702622   -0.7347498   -3.2257802 
C     1.0657288   -1.5139256   -2.8720761 
C    -1.0657288    1.5139256   -2.8720761 
C     0.0702622    0.7347498   -3.2257802 
C    -2.1609317    2.6004269   -1.1663123 
C    -2.1772689    2.5775370    0.2354374 
C    -0.9392700    2.5541729   -1.8897003 
C    -0.9499478    2.6527714    0.9744629 
C    -2.0620895    1.1639324    2.6625409 
C    -1.8139331   -0.0536339    3.3339411 
C    -0.9423817    2.0191037    2.2928065 
C    -0.2994949   -1.7306822    2.9047856 
C    -0.5036231   -0.4865801    3.6239476 
C     0.9499478   -2.6527714    0.9744629 
C     0.9423817   -2.0191037    2.2928065 
C     2.1609317   -2.6004269   -1.1663123 
C     2.1772689   -2.5775370    0.2354374 
C     2.4117374   -0.9292654   -2.7273587 
C     3.1135467   -1.6566307   -1.7181481 
C     1.3294806    1.2928080   -2.8965217 
C     2.5480599    0.4662489   -2.7505710 
C     0.2825676    2.8003854   -1.2122227 
C     0.3109917    2.8632335    0.2434778 
C     1.4318937    2.3621104   -1.9347494 
C     1.5836001    2.5849480    0.9122062 
C     0.2994949    1.7306822    2.9047856 
C     0.5036231    0.4865801    3.6239476 
C     1.5607558    2.0735371    2.2480246 
C     2.0620895   -1.1639324    2.6625409 
C     1.8139331    0.0536339    3.3339411 
C     2.5339894    1.1122473    2.6359454 
C     3.2758550   -1.6480567    0.5939357 
C     3.7911309   -1.0249633   -0.6375604 
C     3.1815996   -0.9224699    1.7522866 
C     3.4440327    0.5303715    1.7254816 
C     3.4030581    1.0877511   -1.7986509 
C     2.6773780    2.2227669   -1.2730549 
C     2.7644664    2.2651516    0.1343599 
C     3.9597016    0.3812783   -0.6807009 
C     3.6688718    1.1676256    0.5097678 
