60 

C     0.4749203    4.6707232   -0.6064599 
C     0.4852430    3.9103336   -1.8712621 
C    -0.8125162    3.4775899   -2.1306268 
C    -0.8079669    4.4403858    0.0205441 
C    -1.6358022    3.8159948   -0.9276172 
C    -0.6029248    3.7393551    1.2855899 
C     1.4336774    4.0642682    0.2107965 
C     0.8277461    3.5597237    1.4419015 
C     1.5375627    2.9195690   -1.8465445 
C     2.2259024    3.1299706   -0.5722589 
C     1.3191513    1.5795144   -2.3030567 
C    -1.0828808    2.1282228   -2.4670069 
C    -0.0357073    1.1672453   -2.6703079 
C    -2.4202276    2.6915618   -0.6089334 
C    -2.2216951    1.7139793   -1.6662817 
C    -1.4904332    2.6960635    1.6979356 
C    -2.5018226    2.2026040    0.7411438 
C    -0.9625402    1.7212002    2.6053457 
C     1.3615669    2.3994498    2.0661031 
C     0.4592771    1.5505581    2.7732945 
C     2.8016735    2.0597535    0.0668914 
C     2.4810745    1.7276407    1.4581620 
C     2.2109575    0.5313407   -1.8016367 
C     2.9823370    0.8308654   -0.6461847 
C     1.9524679   -0.8697048   -2.0996967 
C    -0.3975782   -0.2395337   -2.6597315 
C     0.6539856   -1.2615541   -2.6589285 
C    -2.5282747    0.3656251   -1.4999422 
C    -1.7313061   -0.6163463   -2.2173460 
C    -2.9901048    0.8820703    0.8788500 
C    -3.1441414    0.0051312   -0.2605652 
C    -1.5806680    0.4320727    2.8131486 
C    -2.6341109    0.0300434    1.9951666 
C     0.7269549    0.1487501    3.0101044 
C    -0.5420074   -0.5293988    3.1334193 
C     2.6878763    0.3316426    1.6214924 
C     3.1826413   -0.1825616    0.3553828 
C     1.8286811   -0.5183147    2.4092962 
C     2.6633637   -1.8497958   -1.3267995 
C     3.0748300   -1.4952911    0.0176861 
C     2.1991533   -3.1882173   -1.2321133 
C     0.2630095   -2.6402255   -2.6005658 
C     1.0830451   -3.6219115   -1.9096843 
C    -2.0138471   -1.9797451   -1.9326262 
C    -1.0871743   -2.9714809   -2.2623424 
C    -3.1200013   -1.3593527    0.1849902 
C    -2.7500039   -1.3606086    1.5895999 
C    -2.6601056   -2.3551376   -0.6615098 
C    -0.6646738   -1.8636060    2.7680812 
C    -1.8361398   -2.3163659    2.0325473 
C     1.7171752   -1.9447191    2.0633766 
C     2.5028580   -2.4591681    0.9629101 
C     2.0744012   -3.5570587    0.2062075 
C     0.4757927   -2.6215291    2.2974443 
C     0.2319331   -4.3529841   -0.9432362 
C    -1.0758723   -3.9745328   -1.1841633 
C    -1.9425015   -3.5046891   -0.1315029 
C    -1.4346276   -3.4243748    1.1824416 
C     0.8033249   -4.1826687    0.3850759 
C    -0.0149278   -3.6823721    1.4240025 
