60 

C     1.4446856    3.9662710   -0.3987197 
C     1.9614468    3.5701468    0.8317234 
C     0.8576935    3.5374633    1.7956440 
C     0.0174099    4.2201882   -0.2263051 
C    -0.3653961    3.8668206    1.1241626 
C    -0.6649647    3.6621385   -1.3217333 
C     1.6061219    3.1188904   -1.5573073 
C     0.3024912    2.9066892   -2.1488491 
C     2.4888678    2.0393177   -1.4838768 
C     2.7227290    2.3576294    0.9670882 
C     3.0981955    1.6694106   -0.1948992 
C     0.9855879    2.3332026    2.5267050 
C     2.1636852    1.5799340    2.0537155 
C    -0.1754884    1.6356238    2.8810832 
C    -1.5431506    3.0443790    1.3367563 
C    -1.4503687    1.9892223    2.3115629 
C    -1.9534319    3.1344101   -1.1212535 
C    -2.4042755    2.7981630    0.2230842 
C    -2.3815692    2.0976057   -1.9807248 
C    -0.0565279    1.6434059   -2.7168749 
C    -1.4480320    1.2894742   -2.6922620 
C     2.1923711    0.8130241   -2.1733271 
C     0.9116208    0.5492638   -2.7441525 
C     3.2349002    0.2480693   -0.1545979 
C     2.8931816   -0.2391018   -1.4760637 
C     2.1777014    0.1661733    2.0562945 
C     2.8596122   -0.5456223    0.9713533 
C    -0.1175726    0.2152253    3.0585407 
C     1.0657513   -0.5235425    2.7307398 
C    -2.2087742    0.7598638    2.2072468 
C    -1.4224495   -0.3169739    2.7637957 
C    -3.1923765    1.5641810    0.1242062 
C    -3.2536220    1.2086137   -1.2456689 
C    -3.0752283    0.5128720    1.1031598 
C    -1.8712018   -0.1008730   -2.5785565 
C    -3.0165456   -0.1219907   -1.6770441 
C     0.4570453   -0.8493658   -2.7971990 
C    -0.9579542   -1.1758217   -2.6100567 
C     2.5687068   -1.5439893   -1.6751885 
C     1.3999542   -1.8720179   -2.4706940 
C     2.6425207   -1.9806715    0.7655311 
C     2.6793665   -2.5057761   -0.5860205 
C     0.9088675   -1.9088000    2.5419471 
C     1.8042246   -2.6879159    1.6966295 
C    -1.5831065   -1.6690039    2.3776973 
C    -0.4200434   -2.5173787    2.4930040 
C    -3.1822772   -0.8470130    0.6555091 
C    -3.1309185   -1.1526213   -0.7537524 
C    -2.5189587   -1.9453415    1.3329670 
C    -1.3450687   -2.4340600   -1.9157721 
C    -2.3835847   -2.3662700   -0.9435886 
C    -2.2073736   -2.9725472    0.3656999 
C     1.0052797   -3.1677941   -2.0592753 
C     1.8794817   -3.6181318   -0.9680383 
C    -0.3524982   -3.4610956   -1.7092897 
C     1.0844756   -3.8607799    1.3055265 
C    -0.3113786   -3.6931450    1.7341013 
C    -1.1639519   -3.8926180    0.5900077 
C     1.0726842   -4.2847847   -0.0330443 
C    -0.3285701   -4.2426254   -0.5113467 
