60 

C    -0.8953025   -4.2699823    0.2036159 
C     0.0472917   -4.1395582    1.1853121 
C     1.3775330   -4.0372382    0.5408120 
C    -0.2056595   -4.1716262   -1.1229688 
C     1.1527071   -3.7929635   -0.8907536 
C    -1.0247524   -3.4022968   -1.9204588 
C    -2.0614155   -3.4201677    0.1830702 
C    -2.2588106   -3.0772756   -1.1845333 
C    -2.2082951   -2.3772301    1.1915687 
C    -0.0475254   -3.0805253    2.1993746 
C    -1.1165274   -2.1276285    2.1556724 
C     2.1264615   -3.1757029    1.2967579 
C     1.2724358   -2.6134040    2.3755668 
C     2.8419038   -2.1033587    0.7092259 
C     1.6722241   -2.5957812   -1.4759730 
C     2.6932620   -1.8691830   -0.7112615 
C    -0.5613711   -2.1873868   -2.5250162 
C     0.7832475   -1.7661613   -2.3399598 
C    -2.6581073   -1.7873896   -1.5760238 
C    -1.6244297   -1.2046877   -2.4364950 
C    -2.9915413   -1.2677808    0.8004464 
C    -3.2319072   -0.9749589   -0.6070470 
C    -2.9110445    0.0007743    1.4609398 
C    -0.8155991   -0.7379867    2.5402793 
C    -1.8236380    0.2888180    2.3259724 
C     1.5894304   -1.2530889    2.4907393 
C     2.7011167   -0.9623149    1.5810845 
C     0.5678702   -0.2876199    2.6674808 
C     2.9796995    0.3415024    1.1540867 
C     3.0537436   -0.5916480   -1.1303681 
C     3.4787165    0.4338153   -0.1941988 
C     1.0386627   -0.3485603   -2.5619900 
C     2.3523806    0.1125981   -2.2061716 
C    -1.3941113    0.1843748   -2.4441407 
C    -0.0260651    0.6436243   -2.6493648 
C    -3.2333057    0.4363141   -0.7906815 
C    -3.3471285    1.0339868    0.5214754 
C    -2.3765343    1.0419709   -1.7692648 
C    -3.0325464    2.3634122    0.7122247 
C    -1.4586315    1.6780287    2.4760383 
C    -2.1955712    2.7100869    1.8350729 
C     0.9572685    1.1110503    2.4505971 
C     2.2034739    1.4459633    1.7268263 
C    -0.0578328    2.0796174    2.5225398 
C     2.2759330    2.7071612    1.0624643 
C     3.4164215    1.6696793   -0.8727639 
C     2.6553068    1.4710166   -2.1203423 
C     2.8874443    2.7797794   -0.2421527 
C     0.2730625    2.0728844   -2.4285493 
C     1.6445092    2.4766190   -2.1895429 
C     1.9285770    3.4295812   -1.1489054 
C    -2.0616876    2.4152166   -1.5586759 
C    -2.5493735    3.1076070   -0.4232408 
C    -0.7297372    2.9276549   -1.8864608 
C    -1.2700463    3.7384371    1.4035534 
C     0.0502873    3.3681060    1.8526624 
C     1.1401240    3.6067302    1.0307231 
C     0.9066289    3.9988875   -0.3863555 
C    -1.4893549    3.9953116    0.0337123 
C    -0.4098706    3.9528964   -0.8962352 
