60 

C     4.5412630   -0.3155880    0.2527823 
C     4.1235940    0.9085895    0.7915436 
C     3.1388760    0.6261547    1.8274838 
C     3.8910960   -1.3853310    0.9662589 
C     2.9889389   -0.8224017    1.9286898 
C     3.3321934   -2.2764341    0.0040340 
C     4.0171939   -0.3619092   -1.1062279 
C     3.2608335   -1.5445512   -1.2867480 
C     3.6901855    1.7630685   -0.2914553 
C     3.4612645    0.9071144   -1.4615267 
C     2.7882943    2.7553278    0.0189454 
C     2.0174249    1.4760017    2.0247179 
C     2.0007730    2.6962362    1.2667436 
C     0.7362844    0.8818931    2.4714111 
C     1.6959805   -1.4197348    2.1757405 
C     0.5411238   -0.5682075    2.4833305 
C     2.2724365   -3.0572836    0.3996343 
C     1.4734202   -2.6927738    1.5671480 
C     1.3628093   -3.4767720   -0.6094415 
C     2.0029697   -1.5131780   -1.9958188 
C     1.1358178   -2.6175851   -1.7595279 
C     2.1984330    0.9858505   -2.1489815 
C     1.4057052   -0.2374528   -2.3915916 
C     1.8906342    3.1635208   -0.9976730 
C     1.5061786    2.2317858   -2.0209786 
C     0.7593773    3.3756803    1.0035215 
C     0.7050596    3.7096963   -0.4035973 
C    -0.4088064    1.7082156    2.3884423 
C    -0.4062028    2.9329555    1.6141706 
C    -1.7417761    1.1780021    2.3537619 
C    -0.8169375   -1.1153210    2.3667393 
C    -1.9787705   -0.2205476    2.3824243 
C     0.1398934   -3.1557980    1.3134781 
C     0.1171439   -3.7549234   -0.0146836 
C    -0.9895257   -2.4402321    1.7640447 
C    -0.2811326   -2.5264236   -1.9613832 
C    -0.9046496   -3.3713656   -0.9319099 
C    -0.0461092   -0.1449919   -2.5500932 
C    -0.9099085   -1.3168475   -2.3458500 
C     0.0816553    2.3133173   -2.1345463 
C    -0.4111870    3.2974084   -1.1534628 
C    -0.6917145    1.1702243   -2.4573852 
C    -1.6784709    3.0161069    0.9252930 
C    -2.5582073    2.0707388    1.5384064 
C    -1.6599028    3.0985955   -0.5167535 
C    -3.6782260    1.5730368    0.8371220 
C    -3.2668395   -0.6525438    1.8489380 
C    -4.0987464    0.2530501    1.1140300 
C    -2.2105497   -2.7165906    1.0333309 
C    -2.1094162   -3.0261780   -0.4119241 
C    -3.3221421   -1.9067881    1.1615777 
C    -2.3622325   -1.1814016   -2.0479702 
C    -4.4409472   -0.3943187   -0.1884350 
C    -2.9763091   -2.1195992   -1.1309281 
C    -3.9382722   -1.6830702   -0.1744914 
C    -2.0847719    1.2755524   -2.1755316 
C    -2.5843310    2.2904003   -1.2452185 
C    -3.7129457    1.7561529   -0.6047500 
C    -2.9562276    0.1225968   -2.0848179 
C    -4.0515954    0.4788705   -1.2200419 
