60 

C    -0.8290821   -4.6362276    0.8052004 
C    -0.5260908   -4.7386930   -0.5849083 
C     0.8350033   -4.3252353   -0.7795225 
C     0.3430393   -4.1456573    1.5115628 
C     1.4059170   -4.0411188    0.5411054 
C    -0.0272143   -2.9521104    2.2106872 
C    -1.8889112   -3.6972334    0.9734440 
C    -1.4318385   -2.6876122    1.8994003 
C    -1.3917504   -3.8285382   -1.3148475 
C    -2.2925376   -3.2292044   -0.3501307 
C     0.8352506   -3.2606628   -1.7366112 
C    -0.5634205   -2.9377763   -2.0601000 
C     1.7775332   -2.2016380   -1.6744289 
C     2.2722913   -2.9671895    0.6372963 
C     2.6654176   -2.2241051   -0.5501762 
C     0.8591541   -1.8263079    2.3258565 
C     2.1214164   -1.9495460    1.6683655 
C     0.3225443   -0.4829362    2.5129907 
C    -1.8940785   -1.3718441    1.8001368 
C    -1.0991404   -0.2677586    2.3339630 
C    -2.6753541   -1.9034182   -0.5065015 
C    -2.8095248   -1.0718130    0.6979880 
C    -0.9480349   -1.5826629   -2.2752587 
C    -2.2185196   -1.1793043   -1.6949764 
C     1.4424819   -0.8897601   -2.2741532 
C     0.0446577   -0.5511369   -2.5480589 
C     2.3533240    0.1650724   -2.0728810 
C     3.2556464   -1.0057723   -0.1149969 
C     2.8503930   -0.7838860    1.2608688 
C     3.3245713    0.0749755   -0.9818494 
C     1.2309675    0.6699060    2.4040946 
C     2.5188684    0.5147781    1.7106177 
C     0.6905302    1.9662504    2.4768444 
C    -1.6297822    1.0783896    2.2147301 
C    -0.7455487    2.1879319    2.4512036 
C    -3.2340236    0.2357206    0.5256921 
C    -2.7541149    1.3219029    1.3688525 
C    -2.6068296    0.1516673   -1.8188500 
C    -3.4072147    0.7602283   -0.7978706 
C    -0.3619249    0.8570702   -2.6025248 
C    -1.7269121    1.1671705   -2.3518548 
C     1.9788829    1.5645811   -2.1824270 
C     0.6197997    1.9450704   -2.4103518 
C     3.4548672    1.3542828   -0.4128507 
C     3.0342057    1.6116900    0.9308939 
C     2.7729722    2.3088086   -1.2571561 
C     1.3209321    3.1189564    1.8212074 
C     2.3775646    2.9025323    0.9371624 
C     2.2261969    3.3439516   -0.4627457 
C    -1.0009518    3.4642999    1.8846754 
C     0.2767409    4.0277209    1.4518356 
C    -2.8519839    2.5494471    0.6006607 
C    -3.1225487    2.1547441   -0.7611954 
C    -2.1309970    2.4346268   -1.7632393 
C    -1.9584825    3.6129890    0.8328224 
C     0.2083749    3.2119059   -1.8749029 
C     1.0185311    3.9141001   -0.8857172 
C     0.1238357    4.4360330    0.1149513 
C    -1.1848524    3.4440329   -1.5117282 
C    -1.2502467    4.1883122   -0.2922940 
