60 

C     0.1959472    4.4050672   -0.5431976 
C     1.3343937    4.2198680    0.2213356 
C     0.9284494    3.6776594    1.5595100 
C    -0.9522737    4.1981619    0.3449144 
C    -0.4773131    3.5513643    1.5702366 
C    -1.9583569    3.6151079   -0.3988588 
C    -0.0302607    3.5788015   -1.7414154 
C    -1.4058906    3.2626718   -1.7236511 
C     0.9173315    2.5237755   -2.1006853 
C     2.3712754    3.4168160   -0.2553065 
C     2.1721997    2.5592603   -1.4091156 
C     1.7743251    2.5816773    1.8594735 
C     2.7869992    2.5387471    0.8291300 
C     1.2296198    1.3462988    2.3670131 
C    -1.0772754    2.3165104    2.0125984 
C    -0.2096738    1.2477466    2.5428637 
C    -2.6695683    2.4938492    0.0819516 
C    -2.3255840    1.9088175    1.3628732 
C    -1.8935050    1.9843352   -2.0509008 
C    -2.8602947    1.5895648   -1.0366595 
C     0.4139132    1.2019169   -2.5555124 
C    -1.0240012    0.9798259   -2.5915082 
C     1.2679503    0.0114118   -2.4980670 
C     2.8345308    1.3189667   -1.1180153 
C     3.1694915    1.3075622    0.3004905 
C     2.5065662    0.1101811   -1.7488375 
C     2.0170457    0.1341410    2.1529024 
C     3.0017083    0.1230125    1.0677541 
C     1.4589039   -1.1207161    2.4967862 
C    -0.7811419   -0.0729705    2.7922028 
C     0.0748891   -1.2217656    2.8477213 
C    -2.8188887    0.6107200    1.5728534 
C    -2.1486189   -0.3173322    2.4487303 
C    -3.2287365    0.2480647   -0.8451322 
C    -3.4695357   -0.1624112    0.5099362 
C    -1.5467010   -0.3442602   -2.5578182 
C    -2.6981367   -0.7068615   -1.7615300 
C     0.7120984   -1.3409270   -2.6798420 
C    -0.7020924   -1.4931465   -2.6882317 
C     1.4638164   -2.5044639   -2.2555139 
C     3.0580230   -1.0502670   -1.1031379 
C     3.2393364   -1.0590195    0.3517878 
C     2.6574898   -2.3318897   -1.4875614 
C     1.8850650   -2.3751600    1.8855679 
C     2.8136148   -2.3544893    0.8328698 
C     2.6104366   -3.2021227   -0.3062417 
C    -0.3717449   -2.5492733    2.4399414 
C     0.7242175   -3.2493804    1.8119754 
C    -2.5705703   -1.6247583    2.0736363 
C    -3.3457264   -1.5206619    0.8458506 
C    -1.6831348   -2.7195260    1.9667214 
C    -2.5467197   -2.0945052   -1.3904253 
C    -1.3653227   -2.6089877   -2.0341080 
C    -2.8524282   -2.5007332   -0.0703933 
C    -1.9005782   -3.3516699    0.6581528 
C     0.7817284   -3.6336795   -1.6637660 
C     1.4608673   -3.9806846   -0.4080411 
C     0.4839795   -4.0175280    0.6415350 
C    -0.6019204   -3.6196641   -1.4263667 
C    -0.8302179   -3.9330481    0.0005248 
