60 

C    -1.5784445   -4.6056020   -0.0877301 
C    -0.3503673   -4.7702054   -0.7112169 
C     0.7491556   -4.4955984    0.2004751 
C    -1.2629602   -4.0511855    1.2350279 
C     0.1914031   -3.9768780    1.4170643 
C    -1.9574837   -2.8495522    1.3903927 
C    -2.2660659   -3.5493890   -0.8213663 
C    -2.6521816   -2.5563828    0.0971373 
C    -0.2174004   -3.8555981   -1.8462185 
C    -1.4369327   -3.0775300   -1.9237167 
C     1.6987933   -3.7093763   -0.5302293 
C     1.0460155   -3.2206261   -1.7739666 
C     2.4815597   -2.8351715    0.1696176 
C     0.8037478   -2.8299314    2.0408628 
C     2.1231800   -2.5182425    1.5673454 
C    -1.4199368   -1.7453725    2.1326010 
C    -0.0077480   -1.6923033    2.4997806 
C    -2.1103133   -0.5388730    1.9656391 
C    -2.8139124   -1.2197837   -0.3225870 
C    -2.8871657   -0.2756882    0.7395904 
C    -1.3401185   -1.6952854   -2.2148818 
C    -2.2622133   -0.7610685   -1.5745925 
C     1.1934931   -1.8529814   -2.1461274 
C    -0.0220459   -1.1568451   -2.5592739 
C     2.9698588   -1.6110228   -0.4477100 
C     2.2888081   -1.0577154   -1.5891557 
C     2.6824482   -1.2701351    1.8301340 
C     3.3330981   -0.7521511    0.6114369 
C     0.5851179   -0.3619991    2.7097353 
C     1.9746469   -0.2021665    2.4140277 
C    -1.5972778    0.7140699    2.3894700 
C    -0.2184220    0.8679511    2.6775094 
C    -2.9336813    1.0990571    0.5066559 
C    -2.3142051    1.7414021    1.6632903 
C    -2.1352690    0.6662757   -1.7881091 
C    -2.6650560    1.6284290   -0.8128121 
C     0.0631815    0.2193195   -2.7748621 
C    -1.0540832    1.1108004   -2.5903869 
C     2.2947228    0.3883455   -1.7366691 
C     1.2705423    0.9803072   -2.5308267 
C     3.1769445    0.6269922    0.5692906 
C     2.4385458    1.0185369    1.7643710 
C     2.8438332    1.2498731   -0.6781341 
C     0.3750248    2.1948567    2.3778136 
C     1.7203678    2.2118494    1.7941819 
C    -1.8387272    3.0157432    1.5879428 
C    -0.4733831    3.2959945    2.0376957 
C    -2.2740863    2.9898933   -0.8771701 
C    -2.0768685    3.7475301    0.3542970 
C    -0.5429987    2.4605958   -2.5189045 
C     0.9208129    2.3667233   -2.4584584 
C    -1.2267153    3.4446198   -1.8000100 
C     2.4373413    2.5882074   -0.5721586 
C     2.0355269    3.1443073    0.7272324 
C     1.6122290    3.2272429   -1.5770105 
C    -0.0073152    4.3754622    1.1953257 
C    -1.0347281    4.6671385    0.1934195 
C    -0.4628030    4.4856690   -1.1298786 
C     1.2110864    4.2556471    0.5008971 
C     0.9194245    4.3118199   -0.9660977 
