60 

C     0.1734803    4.1565104    0.3707071 
C    -0.1291404    3.9292081   -0.9524919 
C     1.0583333    3.3451980   -1.6204556 
C     1.6090580    3.7890439    0.5557446 
C     2.0898362    3.1530760   -0.6635471 
C     1.6888405    3.1158953    1.7476100 
C    -0.6125393    3.5315150    1.4133456 
C     0.3377012    2.9756729    2.3321812 
C    -1.7694204    2.7712174    1.0864192 
C    -1.2757336    3.1757542   -1.3296697 
C    -2.1794687    2.7115353   -0.3296837 
C     0.6071825    2.3085285   -2.4488607 
C    -0.8401724    2.2481607   -2.3665525 
C     1.3981825    1.1105318   -2.5812139 
C     2.7869501    1.8978300   -0.6149841 
C     2.5691343    0.9461531   -1.7160151 
C     2.3777150    1.8692615    1.8489993 
C     3.0731275    1.3391529    0.7134466 
C     0.2363327    1.6652756    2.7980042 
C     1.5326357    0.9945571    2.6076621 
C    -2.0659091    1.5857155    1.9172864 
C    -0.9782770    0.9283929    2.6528584 
C    -3.1772448    0.7790640    1.5391335 
C    -3.0540970    1.6532209   -0.7395520 
C    -3.7436771    0.8926044    0.2009441 
C    -1.5194858    1.0245754   -2.5921490 
C    -2.7149099    0.7804443   -1.8770802 
C     0.7084233   -0.0400501   -3.0365552 
C    -0.7415586   -0.1048297   -2.9862771 
C     1.2033943   -1.3678889   -2.8047171 
C     3.0803506   -0.3822315   -1.5770965 
C     2.4025988   -1.5521766   -2.1414350 
C     3.3993379   -0.0341353    0.8253652 
C     3.6234295   -0.8054596   -0.3364348 
C     1.6291418   -0.4151282    2.5225174 
C     2.7361839   -0.9098856    1.7837945 
C    -0.8996536   -0.5246864    2.7707304 
C     0.4069451   -1.2193695    2.6943511 
C    -3.1972575   -0.5920244    1.8832788 
C    -2.0665925   -1.2532113    2.4064544 
C    -3.8905922   -0.4543517   -0.3319505 
C    -3.1460240   -0.5542873   -1.5643010 
C    -3.6147380   -1.3538130    0.6874671 
C    -1.1439888   -1.4417902   -2.6385669 
C     0.0542742   -2.2486015   -2.5648025 
C    -2.2904732   -1.6831244   -1.8096438 
C     0.1513135   -3.3049282   -1.6765719 
C     2.5202148   -2.6781291   -1.2049714 
C     3.2523571   -2.1876092   -0.0853816 
C     2.7118031   -2.2529239    1.2300973 
C     1.4224684   -3.5305205   -0.9773194 
C     0.4574136   -2.5643607    2.2561272 
C     1.5921232   -3.0639753    1.4692142 
C     1.0754459   -3.8336530    0.3781448 
C    -1.9408108   -2.5336329    1.7056748 
C    -2.7621820   -2.4744558    0.5074543 
C    -2.1553003   -2.7311326   -0.7750284 
C    -0.9617629   -3.5260771   -0.7489659 
C    -0.7331411   -3.1891179    1.6940890 
C    -0.3615781   -3.8705336    0.4931720 
