60 

C     0.3937539   -4.4327667   -0.3356355 
C    -0.1093620   -4.3458304    0.9651400 
C     0.8470342   -3.5753425    1.7949580 
C     1.7659541   -3.8818915   -0.3014588 
C     1.9437247   -3.2028535    0.9672308 
C     1.9759533   -3.1804088   -1.4717218 
C    -0.3097680   -3.7986324   -1.4352723 
C     0.7020781   -3.1541871   -2.2112351 
C    -1.5548103   -3.0812192   -1.2089366 
C    -1.3866937   -3.8114584    1.1777798 
C    -2.1302062   -3.1939543    0.1085116 
C     0.0956825   -2.6009723    2.5326316 
C    -1.2934662   -2.8342594    2.2622939 
C     0.5613143   -1.2643313    2.6435671 
C     2.4137354   -1.8487412    0.9956348 
C     1.8612619   -0.9710021    2.0288546 
C     2.4935636   -1.8572710   -1.4698426 
C     2.8309373   -1.1987210   -0.2476837 
C     0.5516117   -1.8651710   -2.7649742 
C     1.7393616   -1.0881463   -2.4464065 
C    -1.7946688   -1.8243906   -1.9634539 
C    -0.7253196   -1.2311870   -2.7759169 
C    -2.7484549   -0.8986390   -1.4597265 
C    -2.7733638   -2.0394514    0.7000806 
C    -2.1431564   -1.7578578    1.9949288 
C    -3.1667159   -0.9801033   -0.0753686 
C    -0.4064125   -0.1709458    2.7568714 
C    -1.7734299   -0.4230753    2.3329654 
C     0.0814998    1.2029413    2.7940411 
C     2.2945330    0.3486927    2.0345991 
C     1.4976053    1.4266271    2.6056081 
C     3.0157597    0.2390217   -0.3045557 
C     3.0834408    0.9094934    0.9465757 
C     1.7298955    0.3127076   -2.4384284 
C     2.5631933    1.0179319   -1.4676984 
C    -0.6921417    0.1728689   -3.0143413 
C     0.5428468    0.9297795   -2.9335691 
C    -2.7538995    0.5113356   -1.7949467 
C    -1.7590909    1.0460814   -2.6139998 
C    -3.2208525    0.3527618    0.4777525 
C    -2.5290998    0.6511496    1.7001013 
C    -3.1619459    1.2748411   -0.6275838 
C    -0.7878677    2.2764000    2.4673516 
C    -2.0880822    1.9899553    1.8832473 
C    -0.2766536    3.5105396    1.8467060 
C     1.9865505    2.6425345    2.0894437 
C     2.9640064    2.3132491    1.0354804 
C     1.1052749    3.6605009    1.5954960 
C     2.3501433    2.4185641   -1.3238297 
C     2.6427359    3.0723780   -0.0884534 
C     1.5299700    3.9720391    0.2524745 
C     0.2288123    2.2874416   -2.5873505 
C    -1.2122885    2.3729238   -2.3566212 
C     1.1237007    3.0416954   -1.8385463 
C     0.6104533    3.9701049   -0.8266605 
C    -2.7011060    2.5835019   -0.4274934 
C    -2.3373396    2.9716559    0.8833893 
C    -1.1953025    3.8678321    0.8190649 
C    -1.7082735    3.1781024   -1.3378807 
C    -0.7866157    3.9871587   -0.5431876 
