60 

C     3.9334617    1.1411929    1.0939201 
C     4.1121790    0.7052679   -0.2005836 
C     4.0733297   -0.7788495   -0.2253389 
C     3.8074674   -0.0662565    1.9364098 
C     3.6429982   -1.2119139    1.0635886 
C     2.8371884    0.1991438    2.8713282 
C     2.8275121    2.0275082    1.3977605 
C     2.2841471    1.5527237    2.6250038 
C     1.8995953    2.4321897    0.3801210 
C     3.3127613    1.1904801   -1.2683228 
C     2.2100341    2.0864546   -1.0203554 
C     3.4362315   -1.1679953   -1.4077180 
C     3.1218448    0.0582563   -2.1699344 
C     2.4398657   -2.1655546   -1.3447598 
C     2.4254679   -2.0151814    1.1575491 
C     1.8987902   -2.5281321   -0.0615984 
C     1.7239952   -0.6623157    3.1029068 
C     1.4471774   -1.7590808    2.2257870 
C     0.9199303    1.5492949    2.9310063 
C     0.6341869    0.2250641    3.4767044 
C     0.4851226    2.6155682    0.7756252 
C    -0.0370665    2.1496149    2.0600556 
C    -0.4671854    2.7823796   -0.2554934 
C     1.1560913    2.1187982   -2.0225009 
C    -0.1358040    2.5857987   -1.6340955 
C     2.0985271    0.0589501   -3.0745570 
C     1.1990496    1.2021738   -3.1357634 
C     1.3564533   -2.1528690   -2.2977116 
C     1.2928477   -1.1553414   -3.2795011 
C     0.4671854   -2.7823796   -0.2554934 
C     0.1358040   -2.5857987   -1.6340955 
C     0.0370665   -2.1496149    2.0600556 
C    -0.4851226   -2.6155682    0.7756252 
C    -0.6341869   -0.2250641    3.4767044 
C    -0.9199303   -1.5492949    2.9310063 
C    -1.4471774    1.7590808    2.2257870 
C    -1.7239952    0.6623157    3.1029068 
C    -1.8987902    2.5281321   -0.0615984 
C    -2.4254679    2.0151814    1.1575491 
C    -1.3564533    2.1528690   -2.2977116 
C    -2.4398657    2.1655546   -1.3447598 
C    -0.0134601    0.7275962   -3.6995325 
C     0.0134601   -0.7275962   -3.6995325 
C    -1.2928477    1.1553414   -3.2795011 
C    -1.1560913   -2.1187982   -2.0225009 
C    -1.1990496   -1.2021738   -3.1357634 
C    -2.0985271   -0.0589501   -3.0745570 
C    -1.8995953   -2.4321897    0.3801210 
C    -2.2100341   -2.0864546   -1.0203554 
C    -2.2841471   -1.5527237    2.6250038 
C    -2.8371884   -0.1991438    2.8713282 
C    -2.8275121   -2.0275082    1.3977605 
C    -3.6429982    1.2119139    1.0635886 
C    -3.8074674    0.0662565    1.9364098 
C    -3.9334617   -1.1411929    1.0939201 
C    -3.4362315    1.1679953   -1.4077180 
C    -3.1218448   -0.0582563   -2.1699344 
C    -3.3127613   -1.1904801   -1.2683228 
C    -4.0733297    0.7788495   -0.2253389 
C    -4.1121790   -0.7052679   -0.2005836 
