60 

C     3.8094872   -1.2842622   -0.0740527 
C     3.9607831   -0.0379437   -0.6546801 
C     3.8320479    0.9884944    0.3869621 
C     3.4971386   -1.0563266    1.3535818 
C     3.3966443    0.3479739    1.5930872 
C     2.4754104   -1.9285825    1.7296778 
C     2.8794325   -2.2405988   -0.5785925 
C     2.2454661   -2.8306790    0.5845487 
C     2.0958293   -1.9600475   -1.7447657 
C     3.1455693    0.3376338   -1.7622646 
C     2.2845095   -0.6396227   -2.3659378 
C     3.1008972    2.0641540   -0.1749688 
C     2.6622938    1.6910804   -1.5150304 
C     2.2490738    2.7787579    0.6557762 
C     2.2625831    0.8783786    2.3138017 
C     1.9196688    2.2272297    1.9688308 
C     1.3521141   -1.4586640    2.5226780 
C     1.1989092   -0.0212122    2.7717295 
C     0.2006606   -2.2914349    2.4907194 
C     1.0336882   -3.4660424    0.4703865 
C     0.1234458   -3.3711883    1.5600159 
C     0.7615249   -2.6097738   -1.8421655 
C     0.2721176   -3.3826513   -0.7650238 
C    -0.2415352   -2.0240710   -2.6960128 
C     1.2091855   -0.0811422   -3.1176767 
C     0.0624663   -0.8574713   -3.4234946 
C     1.4081229    2.1529415   -2.0111225 
C     0.7755087    1.2979316   -2.9516221 
C     1.0572716    3.4209360    0.1138263 
C     0.5794592    3.0649810   -1.1957236 
C     0.6421228    2.7202105    2.2832929 
C     0.1415828    3.5560442    1.1847538 
C    -0.1641662    0.5022191    2.9707085 
C    -0.3955821    1.8967792    2.7512236 
C    -1.1512765   -1.7553879    2.6425684 
C    -1.3422929   -0.3746365    2.8593683 
C    -1.2126323   -3.4089170    1.0275539 
C    -1.1477937   -3.3466603   -0.3879441 
C    -2.0351914   -2.5147562    1.7654586 
C    -1.6390265   -1.9181901   -2.2991961 
C    -2.0981559   -2.5200830   -1.1004050 
C    -1.1043965    0.0073963   -3.4523263 
C    -0.6707770    1.3295800   -3.1441453 
C    -2.1433197   -0.6118499   -2.7349633 
C    -0.8454895    3.0287822   -1.3693594 
C    -1.4650434    2.1228422   -2.3183510 
C    -1.2348866    3.3297024    1.0431485 
C    -1.6293761    2.3868910    2.0985592 
C    -1.7565854    3.1558188   -0.2551609 
C    -2.6089625    0.1754353    2.3875251 
C    -2.6921339    1.5524429    1.9030549 
C    -3.0884225   -1.8741882    1.0999601 
C    -3.1143690   -1.8407266   -0.3535692 
C    -3.4568177   -0.5904767    1.5647867 
C    -2.9918911    0.1743611   -1.8810795 
C    -2.6795423    1.5753686   -1.7368412 
C    -2.8700911    2.2552748   -0.4707585 
C    -3.4120716    1.5534959    0.6177076 
C    -3.5809460   -0.5017772   -0.7575899 
C    -3.8622406    0.2262249    0.4195307 
