60 

C     5.2464889    0.5548586    0.3400370 
C     4.8287218    1.1927505   -0.8038282 
C     4.2755419    0.2228803   -1.7737474 
C     4.9626115   -0.8907856    0.1755247 
C     4.3491038   -1.0909767   -1.1449086 
C     4.2448328   -1.2850491    1.3012314 
C     4.4378922    1.0723552    1.4612240 
C     3.9034280   -0.0533719    2.0963845 
C     3.8067493    2.1836436   -0.4907344 
C     3.4993403    2.0553814    0.9370895 
C     3.0366598    0.7250009   -2.1973839 
C     2.7668594    1.9702582   -1.4019311 
C     1.9171465   -0.1420822   -2.4527663 
C     3.2148426   -1.9064874   -1.2378119 
C     2.0793775   -1.5017221   -2.0596676 
C     3.0601807   -2.0825114    1.2241740 
C     2.6230063   -2.5292654   -0.0459353 
C     2.5391701   -0.1474238    2.4556110 
C     2.0498191   -1.4737283    2.0743016 
C     2.1327683    2.0176956    1.3250408 
C     1.6541442    0.9466876    2.2155484 
C     1.4371170    2.2502884   -1.0390841 
C     1.1303807    2.4412330    0.3531958 
C     0.5775010    0.4223955   -2.4882434 
C     0.3808557    1.7457665   -1.8897624 
C    -0.5775010   -0.4223955   -2.4882434 
C     0.9062514   -2.1784022   -1.5938001 
C     1.2223131   -2.7001474   -0.2710542 
C    -0.3808557   -1.7457665   -1.8897624 
C     0.6830357   -1.6949305    1.8766817 
C     0.2499717   -2.4825026    0.7394897 
C     0.2478525    0.6780418    2.3151248 
C    -0.2478525   -0.6780418    2.3151248 
C    -0.2499717    2.4825026    0.7394897 
C    -0.6830357    1.6949305    1.8766817 
C    -0.9062514    2.1784022   -1.5938001 
C    -1.2223131    2.7001474   -0.2710542 
C    -1.9171465    0.1420822   -2.4527663 
C    -2.0793775    1.5017221   -2.0596676 
C    -3.0366598   -0.7250009   -2.1973839 
C    -1.4371170   -2.2502884   -1.0390841 
C    -1.1303807   -2.4412330    0.3531958 
C    -2.7668594   -1.9702582   -1.4019311 
C    -1.6541442   -0.9466876    2.2155484 
C    -2.1327683   -2.0176956    1.3250408 
C    -2.0498191    1.4737283    2.0743016 
C    -2.5391701    0.1474238    2.4556110 
C    -2.6230063    2.5292654   -0.0459353 
C    -3.2148426    1.9064874   -1.2378119 
C    -3.0601807    2.0825114    1.2241740 
C    -4.2755419   -0.2228803   -1.7737474 
C    -4.3491038    1.0909767   -1.1449086 
C    -3.8067493   -2.1836436   -0.4907344 
C    -3.4993403   -2.0553814    0.9370895 
C    -4.8287218   -1.1927505   -0.8038282 
C    -3.9034280    0.0533719    2.0963845 
C    -4.2448328    1.2850491    1.3012314 
C    -4.9626115    0.8907856    0.1755247 
C    -4.4378922   -1.0723552    1.4612240 
C    -5.2464889   -0.5548586    0.3400370 
