60 

C     2.2081787   -4.1977684   -0.1698660 
C     1.1065631   -4.7041102    0.4918890 
C    -0.0558136   -4.5899750   -0.3490658 
C     1.7485583   -3.6566879   -1.4555222 
C     0.3054974   -3.8610938   -1.5484295 
C     2.1926771   -2.3288160   -1.5330313 
C     2.6868936   -3.0589078    0.6183435 
C     2.8853901   -1.9867143   -0.2548998 
C     0.8329789   -3.8725585    1.6971795 
C     1.8167190   -2.8304714    1.7692042 
C    -1.1206351   -4.0907044    0.4596302 
C    -0.5248533   -3.5209458    1.7106924 
C    -2.1286289   -3.3878657   -0.1547281 
C    -0.5513174   -2.7949553   -2.0044322 
C    -1.8663706   -2.7341374   -1.4413814 
C     1.4309919   -1.2814181   -2.1458186 
C     0.0308600   -1.5044798   -2.4313531 
C     1.9472100    0.0574912   -1.9636804 
C     2.8101870   -0.6799916    0.2275335 
C     2.7455981    0.3518180   -0.7736252 
C     1.4301629   -1.4962452    2.0992462 
C     2.2076908   -0.4230077    1.5231052 
C    -0.9514832   -2.2164699    2.1625728 
C     0.0385874   -1.1783946    2.4237347 
C    -2.8825732   -2.4680380    0.6380774 
C    -2.2579971   -1.8117320    1.7498340 
C    -2.6420803   -1.5189445   -1.4489866 
C    -3.3704791   -1.4358292   -0.2094580 
C    -0.8082609   -0.3256097   -2.5994693 
C    -2.1682829   -0.3230796   -2.0727392 
C     1.2240755    1.1409067   -2.4907195 
C    -0.1785993    0.9442680   -2.7632977 
C     1.4578127    2.5179816   -2.0985496 
C     2.8572050    1.6522970   -0.3111281 
C     2.3893613    2.8012876   -1.0729520 
C     1.9335401    0.9278891    1.8673784 
C     2.6166199    1.9304678    1.1045991 
C    -0.3662556    0.2192895    2.4884562 
C     0.6453974    1.2670889    2.4749790 
C    -2.6238036   -0.4077196    1.7124335 
C    -3.4057876   -0.2057579    0.5059148 
C    -1.7371357    0.5989398    2.1318794 
C    -2.7002077    0.9084385   -1.5821917 
C    -3.2396880    0.9571318   -0.2199652 
C    -0.8253011    2.2040970   -2.4625798 
C     0.1791098    3.2013987   -2.0916093 
C    -2.0547108    2.1657070   -1.7999916 
C    -0.1014190    4.1778931   -1.1100157 
C     2.1460113    3.8649855   -0.1581732 
C     2.2510818    3.2824059    1.2091827 
C     0.9411582    4.5844203   -0.1904463 
C     0.2491309    2.6423294    2.4592756 
C     1.1425509    3.6820145    1.9882468 
C     0.3866859    4.6050503    1.1710706 
C    -1.9972437    1.9653182    1.6498861 
C    -2.7309712    2.1216470    0.4198448 
C    -2.2271223    3.0090371   -0.6144298 
C    -1.3168628    3.9935334   -0.2998991 
C    -1.0768779    2.9812852    1.9676594 
C    -0.9337233    4.1360110    1.1005863 
