60 

C     0.8699898   -4.3137758   -0.1678148 
C    -0.0869299   -4.1007044   -1.1696074 
C    -1.3714488   -3.8518188   -0.5040490 
C     0.2339327   -4.0810304    1.1563796 
C    -1.1381471   -3.7957814    0.9239705 
C     1.0454056   -3.1549553    1.8791562 
C     2.0745273   -3.6017122   -0.2115891 
C     2.2465635   -2.9855024    1.1067060 
C     2.2951261   -2.5728863   -1.1768938 
C     0.1022093   -3.0821892   -2.1563239 
C     1.2979407   -2.2580734   -2.1606443 
C    -2.0545744   -2.8191315   -1.1675477 
C    -1.1839900   -2.4115645   -2.2699487 
C    -2.7840973   -1.8101151   -0.4404117 
C    -1.7459269   -2.7511854    1.6326833 
C    -2.6988985   -1.8842451    0.9846254 
C     0.4637249   -1.9781978    2.5246150 
C    -0.9581597   -1.8983131    2.5123914 
C     1.2151426   -0.7218478    2.5922473 
C     2.8040078   -1.7247763    0.9583053 
C     2.9235253   -1.4600680   -0.4734968 
C     2.4523780   -0.6503537    1.8348894 
C     2.9518633   -0.1451118   -0.9603095 
C     1.2080346   -0.8580962   -2.6254445 
C     2.1450187    0.1785417   -2.1441385 
C    -1.2538882   -1.1304041   -2.7456610 
C    -0.0494012   -0.4023218   -3.0878721 
C    -2.9721189   -0.4814940   -1.0597741 
C    -2.2231265   -0.1794807   -2.2429306 
C    -3.3217106    0.6340070   -0.2528610 
C    -2.7696018   -0.6652210    1.7558513 
C    -1.6340448   -0.6297441    2.6417759 
C    -3.2561400    0.5065988    1.1909591 
C     0.5221757    0.5450828    2.8890030 
C    -0.9304671    0.5807349    2.8895344 
C     1.2011246    1.7822112    2.6316794 
C     2.9630274    0.5943879    1.4162161 
C     3.2334108    0.8633268    0.0114863 
C     2.4437400    1.7830767    1.9684046 
C     2.9450684    2.2574303   -0.2363047 
C     2.5042197    2.8551986    0.9884039 
C     1.8565581    1.5429211   -2.3702284 
C     2.2786652    2.6018848   -1.4291186 
C    -0.4070537    0.9875331   -3.1007511 
C    -1.7372296    1.1438934   -2.5392769 
C     0.5661241    1.9539107   -2.8868943 
C    -2.9097570    1.9945855   -0.5904032 
C    -2.0523278    2.2635173   -1.7089092 
C    -2.7749390    1.7330363    1.7134443 
C    -1.6044380    1.8017969    2.4988047 
C    -2.6640703    2.6917448    0.6271063 
C     0.5023897    2.9897674    2.1445498 
C     1.3118054    3.6105163    1.0731064 
C    -0.8645504    2.9845237    2.0511333 
C    -1.5264989    3.5105743    0.8382343 
C     1.2620348    3.5971771   -1.3686019 
C     0.1842620    3.1662109   -2.2297927 
C    -1.0608482    3.3100926   -1.5710625 
C     0.6863368    4.0317137   -0.1265071 
C    -0.7559487    3.9041050   -0.2604936 
