60 

C    -1.8282413   -3.6548300   -0.7617377 
C    -0.6003039   -4.1732046   -0.3852132 
C     0.3981321   -3.7905870   -1.4023877 
C    -1.6126237   -2.8746763   -1.9946567 
C    -0.2144172   -2.8611608   -2.3073470 
C    -2.3130755   -1.6807664   -1.8854700 
C    -2.5996587   -2.8411261    0.1350509 
C    -3.0547612   -1.6856298   -0.6135388 
C    -2.1237653   -2.6287430    1.4428162 
C    -0.0452265   -3.8979455    0.9165761 
C    -0.8227041   -3.1470166    1.8290282 
C     1.5900494   -3.4626962   -0.7345344 
C     1.3517593   -3.5449524    0.7192101 
C     2.3699208   -2.4167942   -1.2473682 
C     0.4406366   -1.5988448   -2.6107713 
C     1.8121967   -1.5058094   -2.2209771 
C    -1.7454819   -0.4428756   -2.3771287 
C    -0.3280674   -0.3623570   -2.6987233 
C    -2.4569847    0.6994838   -1.9841655 
C    -3.4052962   -0.4722816   -0.0066738 
C    -3.3804796    0.6665928   -0.8763822 
C    -2.2825863   -1.3063566    2.0325344 
C    -3.0383642   -0.2775678    1.4103443 
C    -0.1835794   -2.1043091    2.6149053 
C    -1.0764676   -0.9771564    2.7404174 
C     1.9660192   -2.5941495    1.5368401 
C     1.1745776   -1.8464859    2.4997172 
C     3.2060242   -1.6267245   -0.3751356 
C     2.9623858   -1.6855135    1.0052659 
C     2.4647135   -0.2303612   -2.0819243 
C     3.4074760   -0.3366991   -0.9906194 
C     0.3444108    0.9518371   -2.6079567 
C     1.7904201    0.9939393   -2.3647529 
C    -1.8506345    2.0257508   -2.0426518 
C    -0.4434742    2.1404049   -2.3076621 
C    -3.3858789    1.9830536   -0.3380829 
C    -2.5180813    2.8630735   -1.1182439 
C    -2.7638265    1.0476947    1.8546787 
C    -3.0891174    2.1705451    1.0166338 
C    -0.5881115    0.3724525    2.8235497 
C    -1.5193765    1.3759392    2.4877304 
C     1.6903515   -0.4826698    2.5768342 
C     2.8802291   -0.4398768    1.7666318 
C     0.8445481    0.6514705    2.6960863 
C     3.6771719    0.7889379   -0.2001079 
C     3.2972419    0.7554020    1.2210028 
C     2.3897541    2.1828786   -1.7961837 
C     3.3213806    2.0445199   -0.6980023 
C     0.1936445    3.2805414   -1.6720273 
C     1.5747393    3.3003187   -1.4833483 
C    -1.7483528    3.6517255   -0.1883321 
C    -2.0843844    3.2084985    1.1509428 
C    -1.0733534    2.6943191    1.9932902 
C    -0.4252785    3.8817627   -0.4701127 
C     1.3086256    1.9506506    2.1603709 
C     2.5976531    1.9883959    1.5345346 
C     2.8266014    2.8639806    0.4146482 
C     1.8285777    3.6817342   -0.0688222 
C     0.3128088    2.9537926    1.7456649 
C     0.5799048    3.7804715    0.5857362 
