60 

C     1.0769385   -4.9731229    0.1429063 
C    -0.2259504   -5.2023340    0.5517577 
C    -1.1300368   -4.9695351   -0.5704995 
C     1.0322909   -4.4000210   -1.2441674 
C    -0.3133392   -4.3887550   -1.6760888 
C     1.7675850   -3.1838527   -1.2283746 
C     1.6716234   -3.9688372    0.9983702 
C     2.2074449   -2.9725358    0.1684833 
C    -0.5249157   -4.2439131    1.6423335 
C     0.6717375   -3.4942549    1.9642756 
C    -1.9752417   -3.9386577   -0.1706316 
C    -1.6473526   -3.4977570    1.2227103 
C    -0.8747256   -3.1186894   -2.0601469 
C    -2.0038305   -2.8848075   -1.1755155 
C     1.3263594   -2.0162229   -1.9233627 
C    -0.0674235   -1.9704752   -2.3367843 
C     1.9964092   -0.7739651   -1.6198420 
C     2.3691124   -1.6521854    0.6426331 
C     2.6936248   -0.6735039   -0.3522391 
C     0.5871747   -2.1053553    2.2506757 
C     1.6684594   -1.2160462    1.8136842 
C    -1.7695224   -2.1275142    1.5310675 
C    -0.7138065   -1.4484189    2.2590432 
C    -2.3901217   -1.6013485   -0.8277634 
C    -2.5256748   -1.2913917    0.5989529 
C    -0.7061911   -0.6689766   -2.3463560 
C    -1.9606628   -0.4995419   -1.6636114 
C     1.5342512    0.4566614   -2.2138240 
C     0.1125600    0.5155568   -2.5811598 
C     2.1941101    1.6764683   -1.8649846 
C     3.0597875    0.5851227    0.1329924 
C     3.0524521    1.6956307   -0.7222215 
C     1.6380753    0.1966173    2.1065526 
C     2.5684307    1.0265667    1.4385096 
C    -0.8041236   -0.0199264    2.4677953 
C     0.3955960    0.8060910    2.6043858 
C    -2.7079329    0.0235460    0.9428312 
C    -1.9895548    0.6336163    2.0400425 
C    -2.4412761    0.8222115   -1.3524425 
C    -2.9451886    1.0687611   -0.0392354 
C    -0.5152775    1.7732523   -2.6114597 
C    -1.8575023    1.9326117   -2.0339929 
C     1.5223643    2.9693700   -1.9147478 
C     0.2029778    3.0120468   -2.3641669 
C     2.7543573    2.8878360    0.0436059 
C     2.4151400    2.4647840    1.3703704 
C     1.8982573    3.7423210   -0.7107184 
C     0.2663624    2.2118295    2.5850123 
C     1.3103175    3.0732488    2.0022167 
C    -2.0814680    2.0511107    1.8809366 
C    -2.7619325    2.3389090    0.5993234 
C    -1.0134619    2.8527956    2.2934544 
C    -1.9899650    3.2365996   -1.5211571 
C    -0.7219186    3.9432881   -1.7446284 
C    -2.3882864    3.4665491   -0.1584648 
C     0.9261437    4.5007123   -0.0100565 
C     0.6973471    4.1893335    1.3751736 
C    -0.7553660    4.0764555    1.5793486 
C    -0.3866335    4.6739870   -0.6131129 
C    -1.4286079    4.3980559    0.4023115 
