60 

C     1.2472753   -4.4436684    0.0561523 
C     0.0575841   -4.4815097    0.8365187 
C    -1.0419986   -4.3316782   -0.0630145 
C     0.9110307   -4.0711684   -1.3162945 
C    -0.4961575   -4.0678764   -1.4110235 
C     1.6400290   -2.8734505   -1.6326903 
C     2.1172926   -3.4436112    0.5854139 
C     2.4956087   -2.5635419   -0.4793079 
C     0.2235828   -3.5164418    1.9194692 
C     1.5415052   -2.8725956    1.7715687 
C    -0.8309682   -2.6757435    2.2340113 
C    -2.0517312   -3.3675338    0.1799879 
C    -2.0354209   -2.6410255    1.3932047 
C    -1.1649538   -2.9352270   -1.9376248 
C    -2.2574158   -2.5826678   -1.0456918 
C     1.0256593   -1.7771013   -2.3149659 
C    -0.4149874   -1.8522115   -2.5360132 
C     1.6658595   -0.4690351   -2.2357761 
C     2.8419250   -1.2526674   -0.1901014 
C     2.7277570   -0.2732297   -1.2676311 
C     1.7376968   -1.4966762    2.0392936 
C     2.6671828   -0.7842349    1.1842630 
C    -0.6027727   -1.3143245    2.6920583 
C     0.6657903   -0.6966022    2.6468937 
C    -2.5617781   -1.3190278    1.4493075 
C    -1.7658043   -0.5316163    2.3711181 
C    -2.7894786   -1.2840314   -1.0146866 
C    -3.1065999   -0.6769053    0.2887980 
C    -1.1191087   -0.6425753   -2.7029131 
C    -2.3661980   -0.3896472   -2.0497567 
C     0.9484973    0.7278429   -2.6863493 
C    -0.4516458    0.6284947   -2.8717201 
C     1.4461776    2.0386175   -2.3546190 
C     3.1928496    1.0279340   -0.9835848 
C     2.6620167    2.1665571   -1.6479736 
C     2.8639688    0.5808128    1.4280540 
C     3.3993646    1.4076170    0.4092488 
C     0.7233844    0.7709660    2.6567032 
C     1.9304766    1.3711816    2.2301145 
C    -1.7661243    0.8740721    2.3609561 
C    -0.5069525    1.5801577    2.6220501 
C    -3.2776945    0.7103504    0.3756717 
C    -2.7733322    1.4726462    1.5240798 
C    -2.5184134    1.0340440   -1.9393016 
C    -1.3572701    1.6934595   -2.4926932 
C    -3.1392014    1.5708396   -0.7945778 
C     0.5434502    3.1155240   -1.9376806 
C    -0.8626851    2.9256113   -1.9493262 
C     2.4963153    3.2404215   -0.6712855 
C     2.8968201    2.7341122    0.5868573 
C     1.9809541    2.7263638    1.7147768 
C     1.2054924    3.8049920   -0.8300934 
C    -0.4159865    2.9460979    2.2058409 
C     0.8148535    3.4700157    1.6268135 
C     0.4564075    4.1178111    0.3421770 
C    -2.6203062    2.8116599    1.1237750 
C    -2.7508989    2.8572823   -0.3531599 
C    -1.6386395    3.5545531   -0.8835038 
C    -1.5014166    3.5477642    1.4835004 
C    -0.9408669    4.1198234    0.2546818 
