60 

C     1.3115091    4.9050826    0.1379796 
C     1.4301638    4.2670989   -1.1451507 
C     0.1856739    4.3176083   -1.7924487 
C    -0.1079727    5.2268035    0.3778018 
C    -0.7972014    4.9365545   -0.8418222 
C    -0.4643989    4.5190967    1.5449232 
C     1.8108181    4.0179640    1.1326573 
C     0.7612919    3.8146260    2.0670973 
C     2.0910147    2.9856606   -0.9603619 
C     2.3560317    2.8420094    0.4695810 
C     1.6512423    1.8502964   -1.6775096 
C    -0.3832228    3.1140144   -2.3470659 
C     0.3710445    1.8845544   -2.3853711 
C    -1.8979406    4.0772837   -0.8255282 
C    -1.7343866    3.0578270   -1.8823178 
C    -1.5213718    3.5494353    1.5438882 
C    -2.2995926    3.3616260    0.3656331 
C     0.4101157    2.5104445    2.4485895 
C    -1.0237592    2.3445933    2.2143502 
C     2.2214620    1.5703168    1.0609135 
C     1.2562504    1.3913953    2.1411409 
C     2.0909817    0.5732242   -1.1727881 
C     2.4218530    0.4278934    0.2006822 
C     1.6878107   -0.6216395   -1.8688580 
C    -0.3593024    0.6344007   -2.4057731 
C     0.3593024   -0.6344007   -2.4057731 
C    -2.2671887    1.8404025   -1.4376923 
C    -2.6241721    2.0022205   -0.0306427 
C    -1.6878107    0.6216395   -1.8688580 
C    -1.5242641    1.0643582    1.9457482 
C    -2.3932979    0.8906533    0.7986630 
C     0.7173328    0.0861815    2.3236811 
C    -0.7173328   -0.0861815    2.3236811 
C     2.3932979   -0.8906533    0.7986630 
C     1.5242641   -1.0643582    1.9457482 
C     2.2671887   -1.8404025   -1.4376923 
C     2.6241721   -2.0022205   -0.0306427 
C     1.7343866   -3.0578270   -1.8823178 
C    -0.3710445   -1.8845544   -2.3853711 
C     0.3832228   -3.1140144   -2.3470659 
C    -2.0909817   -0.5732242   -1.1727881 
C    -2.4218530   -0.4278934    0.2006822 
C    -1.6512423   -1.8502964   -1.6775096 
C    -1.2562504   -1.3913953    2.1411409 
C    -2.2214620   -1.5703168    1.0609135 
C     1.0237592   -2.3445933    2.2143502 
C    -0.4101157   -2.5104445    2.4485895 
C     2.2995926   -3.3616260    0.3656331 
C     1.8979406   -4.0772837   -0.8255282 
C     1.5213718   -3.5494353    1.5438882 
C    -0.1856739   -4.3176083   -1.7924487 
C     0.7972014   -4.9365545   -0.8418222 
C    -2.0910147   -2.9856606   -0.9603619 
C    -2.3560317   -2.8420094    0.4695810 
C    -1.4301638   -4.2670989   -1.1451507 
C    -0.7612919   -3.8146260    2.0670973 
C     0.4643989   -4.5190967    1.5449232 
C     0.1079727   -5.2268035    0.3778018 
C    -1.8108181   -4.0179640    1.1326573 
C    -1.3115091   -4.9050826    0.1379796 
