60 

C    -1.0222518   -3.8653515    0.0607544 
C    -1.8290965   -3.3501925    1.0670034 
C    -0.9956533   -3.0391453    2.2194783 
C     0.3631372   -3.8683407    0.5585968 
C     0.3750302   -3.2403316    1.8649445 
C     1.2041710   -3.4243603   -0.4578458 
C    -1.0282904   -3.2812134   -1.2435283 
C     0.3637077   -3.2287441   -1.6661840 
C    -1.9435701   -2.2408484   -1.5942735 
C    -2.6980805   -2.2437197    0.8053055 
C    -2.8573448   -1.7625206   -0.5413456 
C    -1.4543735   -1.7950001    2.7325915 
C    -2.5484744   -1.2996929    1.8869395 
C    -0.5061439   -0.8989654    3.1883128 
C     1.3501841   -2.2364412    2.1623835 
C     0.8965433   -1.1569369    3.0004688 
C     2.3064701   -2.5246045   -0.1806896 
C     2.4040262   -1.9385998    1.1757665 
C     2.7911151   -1.7884345   -1.3001923 
C     0.7715876   -2.3482929   -2.6363727 
C     2.0840191   -1.7816895   -2.5487733 
C    -1.4878349   -1.2695859   -2.6040342 
C    -0.1612676   -1.3254791   -3.0946532 
C    -2.0946679    0.0231309   -2.6779660 
C    -3.3859831   -0.4510689   -0.6316366 
C    -3.1461242    0.3501004   -1.8019858 
C    -2.7577045    0.0950684    1.7065287 
C    -3.3681509    0.4653283    0.4791986 
C    -0.7347535    0.5536227    3.0919694 
C    -1.8662201    1.0660907    2.3893031 
C     1.5412208    0.1245828    3.0025570 
C     0.5343116    1.1938454    3.0736023 
C     3.1254958   -0.7239147    1.3240568 
C     2.7122673    0.3055171    2.2822794 
C     3.3500501   -0.4507814   -1.1194895 
C     3.6095186    0.0071251    0.1665048 
C     1.9688638   -0.4189594   -2.9400667 
C     0.6122289   -0.1074797   -3.2522456 
C     2.7464560    0.4320175   -2.0870138 
C    -1.3164484    1.2551172   -2.8707658 
C     0.0918086    1.1935034   -2.9695769 
C    -3.1127716    1.7482847   -1.4730606 
C    -3.2163836    1.8338013   -0.0583885 
C    -1.9794044    2.3243343   -2.1518181 
C    -1.7279526    2.3768135    1.8477968 
C    -2.4418546    2.7716140    0.6330593 
C     0.7199752    2.4396823    2.3941738 
C    -0.4529027    3.0592994    1.8652871 
C     2.9534523    1.6074446    1.7189228 
C     3.4734802    1.4084306    0.3983551 
C     1.9617339    2.6239398    1.6862571 
C     2.2735237    1.7384471   -1.7374715 
C     0.9349244    2.1685342   -2.2339056 
C     2.7641898    2.2636204   -0.5072564 
C     1.9318351    3.1248027    0.3132595 
C    -1.1945284    3.2590279   -1.4764175 
C    -1.5573517    3.6057163   -0.1248892 
C    -0.3655842    3.8062017    0.6345589 
C     0.2702808    3.1894059   -1.5305916 
C     0.7655592    3.6462445   -0.2177780 
