60 

C    -0.8726750   -4.2365137    1.1230401 
C     0.5334849   -4.1050943    0.9536054 
C     1.0428040   -3.1285607    1.8618229 
C    -1.2894964   -3.2490047    2.0680408 
C    -0.1307419   -2.5430392    2.5388641 
C    -2.2726450   -2.4146403    1.4494699 
C    -1.4436745   -3.8633769   -0.1449495 
C    -2.3825576   -2.8205203    0.0379211 
C     0.8553924   -3.9746317   -0.4629883 
C    -0.4062225   -3.7120870   -1.1501189 
C     1.9943358   -3.2576503   -0.8222246 
C     2.1284544   -2.2919075    1.4671566 
C     2.6845768   -2.4162850    0.1586384 
C     2.1828944   -0.9952470    2.0590606 
C    -0.1863053   -1.1441913    2.8264749 
C     1.0556194   -0.4493230    2.7841832 
C    -2.4309415   -1.0523273    1.8055978 
C    -1.3972208   -0.3602447    2.5689817 
C    -3.2277149   -0.3114490    0.8880627 
C    -2.5994107   -1.8386979   -0.9713956 
C    -3.2628555   -0.6703435   -0.5325517 
C    -0.5095014   -2.6793725   -2.1374038 
C    -1.6612394   -1.7578538   -2.1035607 
C     1.9652453   -2.5318737   -2.0486602 
C     0.7401069   -2.1790506   -2.6560454 
C     3.1417515   -1.2223635   -0.5359028 
C     2.7426960   -1.3190455   -1.8897669 
C     2.8456076    0.1172480    1.4439384 
C     3.1745818    0.0780667    0.0631620 
C     1.1368665    0.9826743    2.7766704 
C     2.3314769    1.3266175    2.0414169 
C    -1.3173627    1.0971584    2.5085651 
C    -0.0265486    1.7950077    2.6770631 
C    -3.2718995    1.0842751    0.9953308 
C    -2.3225858    1.7979109    1.7700854 
C    -3.2008385    0.5714264   -1.2606271 
C    -3.3046892    1.6625200   -0.3363566 
C    -1.5298232   -0.4857324   -2.7243322 
C    -2.2703772    0.6756563   -2.3012699 
C     0.8766832   -0.7831897   -3.0878793 
C     2.1093021   -0.2317620   -2.5489194 
C    -0.2389571    0.0097639   -3.1568146 
C     2.8778103    1.2668172   -0.7575741 
C     2.1739095    1.0836290   -2.0292054 
C     2.4334455    2.5251720    1.3694259 
C     2.6924845    2.5007738   -0.0793368 
C     0.1606106    3.1242624    2.1489558 
C     1.4215145    3.5150999    1.6126362 
C    -1.9972900    3.0034233    0.9986031 
C    -2.4737292    2.7894049   -0.3756922 
C    -0.8376629    3.6989397    1.2252209 
C    -1.4215830    1.8630284   -2.3899109 
C    -0.1401867    1.4264001   -2.8640672 
C     1.0725018    1.9991596   -2.3678809 
C    -1.5317161    2.9586110   -1.4700579 
C     1.9066129    3.5565883   -0.6461777 
C     1.2315914    4.2769182    0.3966936 
C    -0.1449405    4.3073438    0.1025623 
C     0.9436714    3.2247371   -1.6616328 
C    -0.3526398    3.7067453   -1.2079461 
