60 

C     2.0682351   -3.5701296    1.4735889 
C     1.1489608   -4.1575144    0.5614343 
C     1.4657341   -3.6840010   -0.7746698 
C     2.8572130   -2.6209829    0.7590438 
C     2.4785171   -2.6473655   -0.6344346 
C     2.8070389   -1.3567117    1.4408553 
C     1.2862172   -2.7949636    2.4133358 
C     1.7864502   -1.4553055    2.4702285 
C    -0.2000366   -3.9437298    1.0476467 
C    -0.1109803   -3.0254311    2.1901798 
C    -1.2315711   -3.7856483    0.1140917 
C     0.4233191   -3.4862572   -1.6843482 
C    -0.9216848   -3.7732280   -1.2814351 
C     0.4091715   -2.2866991   -2.5327850 
C     2.4166412   -1.4284233   -1.3690653 
C     1.3698317   -1.2615891   -2.3933122 
C     2.9449249   -0.1668101    0.7327842 
C     2.9284179   -0.2340960   -0.7280612 
C     2.4852343    1.0538120    1.3973774 
C     0.9159987   -0.3687259    2.7128542 
C     1.3840549    0.9666390    2.3253300 
C    -1.0204692   -1.9520484    2.3487071 
C    -0.4980528   -0.6613007    2.8266480 
C    -2.2541373   -2.7713325    0.3459280 
C    -2.2192193   -1.9317048    1.4856330 
C    -1.7777446   -2.7871446   -1.8908904 
C    -0.9909361   -1.9283705   -2.7297690 
C    -2.6543004   -2.2089879   -0.9448330 
C    -1.3852850   -0.6081038   -2.8874798 
C     0.9826566    0.1066761   -2.8085581 
C    -0.3819230    0.4176503   -3.0583268 
C     2.8152364    1.0030633   -1.4001532 
C     1.7905474    1.1993867   -2.4215319 
C     2.7327504    2.2804492    0.7004758 
C     2.9926999    2.2163470   -0.7184682 
C     1.9592083    3.4435622    0.9584120 
C     0.4668894    2.1042536    2.4275660 
C     0.7762155    3.3474930    1.7269625 
C    -1.3767892    0.4527792    2.8214417 
C    -0.8968882    1.8180298    2.6452312 
C    -2.9701405   -0.7205229    1.3924966 
C    -2.6700859    0.3525406    2.2522447 
C    -3.0466274   -0.8264677   -1.0770894 
C    -2.4856734   -0.0525454   -2.1510255 
C    -3.3690202   -0.1407290    0.1132263 
C    -0.9528921    1.6673862   -2.6475663 
C    -2.2194396    1.3580951   -2.0070325 
C     1.2817377    2.5477830   -2.2893050 
C     2.1363613    3.2206087   -1.3435858 
C     1.5927449    4.0348731   -0.3525772 
C    -0.1482874    2.7753553   -2.2549934 
C    -0.2725860    4.0464546    1.0090905 
C     0.2059722    4.3066078   -0.3323789 
C    -0.6877603    3.6599073   -1.2465668 
C    -1.9364761    2.5422680    1.8866530 
C    -2.9355407    1.6015062    1.5664193 
C    -3.2445093    1.3007570    0.2145114 
C    -2.6224880    2.0849139   -0.8449654 
C    -1.5651630    3.4947314    0.9278550 
C    -1.8622726    3.2329408   -0.4830453 
