60 

C     2.6710140   -2.9849284    0.1209840 
C     3.0950218   -2.1460495    1.1334618 
C     3.7456734   -0.9930555    0.5232877 
C     2.8883175   -2.2672751   -1.1681991 
C     3.4929243   -1.0130427   -0.9042011 
C     1.7070648   -2.3636575   -1.9013699 
C     1.3806373   -3.5443006    0.1341062 
C     0.8572640   -3.3673104   -1.2214320 
C     0.5009644   -3.3366822    1.2568397 
C     2.1517082   -1.6733004    2.1288541 
C     0.8433382   -2.2349245    2.1939555 
C     3.3928459    0.1348054    1.2787435 
C     2.3651814   -0.2528638    2.2630329 
C     3.2939859    1.3494513    0.6150164 
C     2.9907064    0.1593859   -1.5575556 
C     3.2098636    1.3797387   -0.8337393 
C     1.1156424   -1.2133107   -2.5367115 
C     1.7939136    0.0746601   -2.4089460 
C    -0.3319799   -1.2612138   -2.7397669 
C    -0.4957071   -3.4110517   -1.4397230 
C    -1.1282179   -2.3263766   -2.1982478 
C    -0.8737563   -3.6222864    0.9999291 
C    -1.3439446   -3.7698076   -0.3522656 
C    -1.8908557   -2.8998489    1.6978954 
C    -0.2116586   -1.3570153    2.6963376 
C    -1.5788884   -1.7632533    2.4475843 
C     1.3347089    0.6526129    2.6095194 
C     0.0378856    0.0609988    2.9274438 
C     2.4413657    2.3933162    1.1556006 
C     1.4457559    2.0533186    2.1313357 
C     2.4926857    2.5540021   -1.1505893 
C     2.1123017    3.2527114    0.0771544 
C     1.0260140    1.3068518   -2.6822819 
C     1.4067716    2.5570273   -2.0386338 
C    -1.0355940   -0.0611138   -2.9685721 
C    -0.3418434    1.2137401   -3.0457052 
C    -2.3373437    0.1725943   -2.3942069 
C    -2.4117990   -2.0831997   -1.6004786 
C    -2.5683310   -3.0144537   -0.5107232 
C    -2.9555060   -2.5244200    0.7325247 
C    -2.9185999   -0.7416442   -1.4819189 
C    -2.6029478   -0.7558741    2.1326452 
C    -3.2890194   -1.1578705    0.9119474 
C    -3.3763825   -0.2324109   -0.1833180 
C    -1.0915954    0.9602292    2.9507284 
C    -2.3726418    0.5510391    2.3966315 
C     0.2594642    2.8585603    2.0857097 
C    -0.9459844    2.3002155    2.5750972 
C     0.8253927    3.7981553   -0.1105744 
C     0.3979018    3.4729196   -1.4786165 
C    -0.0867474    3.7014813    0.9451577 
C    -1.2849613    2.2370114   -2.6791892 
C    -2.4410212    1.5760423   -2.1782956 
C    -0.9434209    3.2621636   -1.7482300 
C    -3.2323306    1.1990460    0.1255461 
C    -2.8564553    1.5775953    1.4654897 
C    -2.0594003    2.7100862    1.6981727 
C    -1.5130939    3.5039543    0.6588830 
C    -2.8229169    2.1131195   -0.9037597 
C    -1.9333702    3.2357082   -0.6523640 
