60 

C    -2.5766369   -3.4441180    0.4295151 
C    -1.2371820   -3.9330211    0.3748203 
C    -0.4507234   -3.4210248    1.4762825 
C    -2.6107620   -2.5012194    1.4704626 
C    -1.3048994   -2.4745393    2.1609552 
C    -3.1552289   -1.2636391    1.0012359 
C    -2.8181165   -2.6813733   -0.8007048 
C    -3.2793486   -1.3642450   -0.4385756 
C    -0.7417670   -3.6973035   -0.9560126 
C    -1.6807577   -2.7735373   -1.6265652 
C     0.6054528   -3.5496710   -1.1264682 
C     0.9440199   -3.1763105    1.3051688 
C     1.5048031   -3.5458024    0.0230310 
C     1.5315826   -2.0459536    2.0329180 
C    -0.8160971   -1.2694434    2.6822727 
C     0.6515588   -1.1179772    2.7613713 
C    -2.7718555   -0.0499358    1.6107749 
C    -1.6809382   -0.0624137    2.5888116 
C    -3.0113001    1.1203325    0.8384155 
C    -2.9805411   -0.2476494   -1.2465007 
C    -3.0982831    1.0217486   -0.5991542 
C    -1.1705531   -1.6134120   -2.3442219 
C    -1.9736261   -0.3924667   -2.2979047 
C     1.1154284   -2.5781619   -2.1028019 
C     0.2505511   -1.5273866   -2.5979227 
C     2.6833279   -2.9134994   -0.4368108 
C     2.4337872   -2.2991728   -1.7611750 
C     2.7879537   -1.5211105    1.5624852 
C     3.3484961   -1.9786185    0.3342637 
C     3.0614533   -0.0927426    1.6105030 
C     1.1477395    0.1721392    3.0800629 
C     2.3115730    0.7197582    2.4098232 
C    -1.1232189    1.1900325    2.8974067 
C     0.2622234    1.2740632    3.2478730 
C    -2.3802620    2.3801454    1.1393538 
C    -1.4666614    2.4218508    2.1836039 
C    -2.5708277    2.2313425   -1.1755556 
C    -2.1432312    3.1145060   -0.0984260 
C    -1.4121226    0.7901363   -2.8197212 
C    -1.8175297    2.1280362   -2.3609104 
C     0.8692333   -0.2174867   -2.8248206 
C    -0.0091327    0.8543691   -3.1202333 
C     2.9493915   -0.9531827   -1.7324849 
C     3.6334316   -0.7853141   -0.5013909 
C     3.4449154    0.3684196    0.2774506 
C     2.1690922    0.1162710   -2.2457803 
C     2.8644279    1.5480120   -0.2824460 
C     2.3597255    1.4465203   -1.6426076 
C     2.0280778    2.0916876    1.9983056 
C     0.8187128    2.4557559    2.6657215 
C    -0.2259127    3.1864499    2.0123975 
C     2.2520433    2.5103213    0.6531126 
C    -0.9736315    3.8824325   -0.2458193 
C     0.0516446    3.7956103    0.7999136 
C     1.3380109    3.4999847    0.1315200 
C    -0.7142569    3.0156265   -2.5355735 
C     0.4307407    2.2056672   -2.9562410 
C     1.5323496    2.5008210   -2.1284465 
C    -0.2973966    3.8729880   -1.5069496 
C     1.1110529    3.5767039   -1.2476071 
