60 

C     1.4750084    3.0122742    1.8655374 
C     0.1129849    3.3883885    1.6111170 
C     0.0501489    3.8276494    0.2276179 
C     2.2284963    3.0877598    0.6590612 
C     1.3533977    3.5419123   -0.3835332 
C     3.0100759    1.8955592    0.5162118 
C     1.8155033    1.7768731    2.5058433 
C     2.8157369    1.0761703    1.6942039 
C     0.7987294    1.0389448    3.0874698 
C    -0.9533757    2.5877984    2.1597277 
C    -0.5966684    1.4425814    2.9400286 
C    -2.1738193    2.4807829    1.4124620 
C    -1.1185675    3.6361381   -0.5163819 
C    -2.2678343    3.1184825    0.1321075 
C    -1.0568282    2.9678492   -1.8269258 
C     1.3994726    2.8841288   -1.6117631 
C     0.1598726    2.5687326   -2.3316903 
C     3.1329472    1.2813862   -0.7706945 
C     2.3249115    1.7934730   -1.8368226 
C     3.4300286   -0.1266759   -0.7773213 
C     2.8524585   -0.3448314    1.6364611 
C     3.3145237   -0.9295338    0.4149164 
C     0.8784368   -0.4086085    3.1435621 
C     1.9093508   -1.1231039    2.4631320 
C    -1.3662535    0.2370754    2.9024277 
C    -0.4759114   -0.8892386    3.1804386 
C    -2.9031179    1.2289599    1.3303504 
C    -2.4859008    0.0621755    2.0325459 
C    -2.9770577    2.2401765   -0.7709965 
C    -2.1885982    2.0486545   -1.9379290 
C    -3.4479976    1.1243952   -0.0246378 
C    -2.0413306    0.7359004   -2.5077355 
C     0.3189904    1.2742341   -2.9716366 
C     1.6860148    0.8760768   -2.7670184 
C    -0.7330794    0.3139911   -3.0158872 
C     3.0408225   -0.9297933   -1.8943981 
C     2.0473551   -0.4741157   -2.8002902 
C     2.8689036   -2.2632155   -0.0083852 
C     2.6818419   -2.2426335   -1.4424484 
C     1.5810183   -2.4657048    2.0683591 
C     2.0063069   -3.0024493    0.7649667 
C    -0.7852389   -2.1622670    2.7289908 
C     0.2957635   -2.9846127    2.3026682 
C    -2.7401513   -1.2764811    1.4408676 
C    -1.9143254   -2.3703991    1.8165085 
C    -3.5068804   -0.1027464   -0.6569371 
C    -2.9062236   -0.2715866   -1.9672544 
C    -3.3051348   -1.3367163    0.1113965 
C    -2.5464764   -1.6419039   -2.0508616 
C    -2.8976809   -2.3266839   -0.8000952 
C    -0.3454704   -1.1215718   -2.9770562 
C     1.0149754   -1.4851447   -2.8750924 
C     1.4413758   -2.6014159   -2.0123930 
C    -1.2860121   -2.0831668   -2.4575145 
C     0.8667569   -3.6831652    0.1408496 
C    -0.1448465   -3.7267524    1.1234354 
C    -1.4968984   -3.3904044    0.8517194 
C    -1.8826711   -3.2586766   -0.5003040 
C     0.4988045   -3.3597059   -1.2343669 
C    -0.8666630   -3.1652189   -1.5366132 
