60 

C    -3.7597974   -0.1893095    1.8890430 
C    -3.8655379   -1.1558023    0.9079014 
C    -4.1071111   -0.4938013   -0.3897860 
C    -3.9068128    1.1263635    1.2225748 
C    -3.9457274    0.9175715   -0.2069279 
C    -2.9611530    1.9629273    1.7882657 
C    -2.5861447   -0.1475965    2.7280794 
C    -2.2043149    1.2259867    2.8110331 
C    -1.5443778   -1.1231434    2.5866213 
C    -2.8562024   -2.1504733    0.7262941 
C    -1.6975466   -2.1792496    1.5761022 
C    -3.4069199   -1.2080327   -1.3739480 
C    -2.6908914   -2.3113579   -0.7108542 
C    -2.7405236   -0.4902317   -2.3840698 
C    -3.0199204    1.6313390   -1.0614899 
C    -2.5610746    0.9422380   -2.2319586 
C    -2.0167511    2.6802311    0.9905015 
C    -2.0669301    2.5816845   -0.4367370 
C    -0.8559673    1.6304195    2.7336353 
C    -0.7368019    2.6184363    1.6802329 
C    -0.1917421   -0.7050418    2.9583704 
C     0.1917421    0.7050418    2.9583704 
C     0.8559673   -1.6304195    2.7336353 
C    -0.4948441   -2.7997779    1.0209072 
C     0.7368019   -2.6184363    1.6802329 
C    -1.4938616   -2.7568252   -1.2450649 
C    -0.3992108   -3.0861040   -0.3717764 
C    -1.5433128   -1.0319392   -2.9945483 
C    -0.9467523   -2.1836781   -2.4630719 
C    -1.3127895    1.2813045   -2.8877263 
C    -0.6947776    0.0703610   -3.3970394 
C    -0.8372088    2.8711752   -1.0938784 
C    -0.4921250    2.2876740   -2.3706853 
C     0.4948441    2.7997779    1.0209072 
C     0.3992108    3.0861040   -0.3717764 
C     1.5443778    1.1231434    2.5866213 
C     1.6975466    2.1792496    1.5761022 
C     2.2043149   -1.2259867    2.8110331 
C     2.5861447    0.1475965    2.7280794 
C     2.0167511   -2.6802311    0.9905015 
C     2.9611530   -1.9629273    1.7882657 
C     0.8372088   -2.8711752   -1.0938784 
C     0.4921250   -2.2876740   -2.3706853 
C     2.0669301   -2.5816845   -0.4367370 
C     0.6947776   -0.0703610   -3.3970394 
C     1.3127895   -1.2813045   -2.8877263 
C     0.9467523    2.1836781   -2.4630719 
C     1.4938616    2.7568252   -1.2450649 
C     1.5433128    1.0319392   -2.9945483 
C     2.8562024    2.1504733    0.7262941 
C     2.6908914    2.3113579   -0.7108542 
C     3.7597974    0.1893095    1.8890430 
C     3.9068128   -1.1263635    1.2225748 
C     3.8655379    1.1558023    0.9079014 
C     3.0199204   -1.6313390   -1.0614899 
C     2.5610746   -0.9422380   -2.2319586 
C     2.7405236    0.4902317   -2.3840698 
C     3.4069199    1.2080327   -1.3739480 
C     3.9457274   -0.9175715   -0.2069279 
C     4.1071111    0.4938013   -0.3897860 
