60 

C     1.3783872   -4.6506435    0.1531895 
C    -0.0533937   -4.7684404    0.0036105 
C    -0.4162684   -4.3283708   -1.2869836 
C     1.8832475   -3.9578538   -1.0081798 
C     0.8012419   -3.7557435   -1.8986257 
C     2.5382635   -2.7429392   -0.5748612 
C     1.5552142   -3.7451718    1.2450336 
C     2.3874282   -2.6453691    0.8642735 
C    -0.7179920   -4.1454327    1.1498058 
C     0.3120756   -3.4372793    1.9116270 
C    -1.9462030   -3.5108571    0.9484113 
C    -1.4791685   -3.3903732   -1.4664752 
C    -2.3525364   -3.1088934   -0.4089766 
C     0.4682065   -2.4609489   -2.4163822 
C    -0.9552082   -2.2623414   -2.2411436 
C     2.4542423   -1.5390229   -1.3425551 
C     1.3598797   -1.3386347   -2.2811726 
C     2.9027403   -0.3948397   -0.6722538 
C     2.2575757   -1.3779570    1.4938420 
C     2.8731287   -0.3246817    0.7826173 
C     0.0815198   -2.1197142    2.4519940 
C     1.0989321   -1.0645806    2.3235930 
C    -2.2785843   -2.4209872    1.8076352 
C    -1.2805757   -1.6995128    2.5293555 
C    -2.9268220   -1.7791927   -0.3074389 
C    -3.0420179   -1.4482655    1.0762305 
C    -1.4781673   -0.9614062   -2.1367351 
C    -2.5667160   -0.7232821   -1.1919409 
C     0.8410044   -0.0066395   -2.4782453 
C    -0.6047673    0.1439016   -2.5292734 
C     2.6730212    0.9197165   -1.1694421 
C     1.6204948    1.1778646   -2.0920215 
C     2.7135896    1.0243622    1.1470691 
C     2.8724119    1.8292878   -0.0658785 
C     0.7512951    0.3369751    2.4813369 
C     1.6803882    1.3760849    2.0701367 
C    -1.6184143   -0.2870431    2.4609884 
C    -2.7317845   -0.1469865    1.5459855 
C    -0.6620769    0.7332423    2.5284013 
C    -2.7709059    0.6376351   -0.7470373 
C    -2.7893573    0.9560700    0.6803617 
C    -1.1384293    1.4336329   -2.4435350 
C    -2.2995496    1.6524455   -1.6032864 
C     1.0565975    2.5398800   -2.1187960 
C    -0.3364041    2.6534721   -2.4461907 
C     2.4234541    3.1128140   -0.1282557 
C     1.6153266    3.5673403   -1.2497840 
C     1.2539517    2.7399988    2.0330300 
C     1.8798595    3.6924618    1.0982337 
C    -1.0958305    2.0690870    2.1069748 
C    -2.1929402    2.1841877    1.1563258 
C    -0.1186200    3.1146417    2.1335700 
C    -2.2261200    2.9826004   -1.1439803 
C    -1.1238024    3.6789001   -1.8283392 
C    -2.1886332    3.2971055    0.2406346 
C     0.7995540    4.6319997   -0.7061618 
C     0.9959396    4.7070127    0.7557819 
C    -0.2857320    4.3530665    1.3668584 
C    -0.5873285    4.6137071   -0.9469879 
C    -1.2646224    4.3839104    0.3840325 
