60 

C    -1.5611069   -3.5731035    1.4408705 
C    -0.3530201   -3.3738954    2.0774711 
C     0.7352879   -3.8234157    1.2193898 
C    -1.2419352   -4.0901942    0.0814197 
C     0.1825348   -4.0699375   -0.0955625 
C    -2.0610693   -3.4249453   -0.8073387 
C    -2.4841021   -2.4832620    1.3102698 
C    -2.9424801   -2.5067477   -0.0420421 
C    -2.2121184   -1.1995683    1.9013319 
C    -0.0038376   -2.0818384    2.6330973 
C    -0.9387645   -1.0043797    2.6050216 
C     1.7942857   -2.9166705    1.4052273 
C     1.3754790   -1.8343126    2.3234269 
C     2.5711545   -2.5739882    0.3051683 
C     0.7480484   -3.3862401   -1.2360459 
C     2.0766609   -2.8668798   -1.0426222 
C    -1.5512216   -2.6993056   -1.9263402 
C    -0.1295969   -2.6323960   -2.1530596 
C    -3.1326712   -1.3425094   -0.7848793 
C    -2.3584398   -1.4995486   -2.0255060 
C    -2.8087703   -0.0429907    1.2634289 
C    -3.2110666   -0.0766320   -0.1332748 
C    -2.4681606    1.2285096    1.8132039 
C    -0.3767474    0.3293364    2.7768332 
C    -1.2610949    1.4215197    2.5890831 
C     1.9246306   -0.5316702    2.2504252 
C     1.0621128    0.5668406    2.6746938 
C     3.2861673   -1.3131713    0.3090430 
C     3.0184338   -0.2978877    1.3042897 
C     2.5833866   -1.8292781   -1.8476203 
C     3.4261923   -0.9292884   -1.0368777 
C     0.3740157   -1.3960331   -2.7829193 
C     1.7537668   -1.0173367   -2.6347717 
C    -1.8738269   -0.3585859   -2.6198849 
C    -0.4974655   -0.3063232   -3.0306607 
C    -3.0113846    1.1193253   -0.9557682 
C    -2.2893827    0.9473019   -2.1723540 
C    -2.7278687    2.4217765    1.0996709 
C    -2.8918222    2.3953186   -0.3123283 
C    -0.7902613    2.7859395    2.3609440 
C    -1.7204114    3.4244222    1.4695749 
C     1.5095461    1.9061422    2.4228359 
C     0.5690724    3.0085801    2.1920770 
C     3.2653955    1.0398712    0.9002641 
C     2.6267693    2.1150173    1.5872793 
C     3.2279408    0.4004027   -1.4638902 
C     2.1696112    0.3891513   -2.4620568 
C     3.2863000    1.4100847   -0.5044621 
C    -0.0809030    1.0815723   -2.9171582 
C    -1.2056819    1.8509946   -2.4979274 
C     1.2456267    1.4514333   -2.5101379 
C    -1.9940926    3.4045202   -0.8259380 
C    -1.2709220    4.0235612    0.2955599 
C    -1.0327040    3.0631393   -1.7876071 
C     1.0401099    3.7428847    1.0115015 
C     2.2721034    3.1514757    0.6361034 
C     2.4931533    2.6151727   -0.6621790 
C     1.4303933    2.6523007   -1.6429732 
C     0.1291134    4.0720030   -0.0134611 
C     0.3056377    3.4637383   -1.3318585 
