60 

C    -1.1928719   -4.1868995   -0.4993065 
C    -0.3841002   -4.1825987    0.6442814 
C     1.0053827   -4.0520694    0.2308349 
C    -0.3386593   -3.7528700   -1.6263291 
C     1.0052302   -3.6267188   -1.1404281 
C    -0.9734962   -2.6365940   -2.2235907 
C    -2.3508380   -3.4018120   -0.4851190 
C    -2.2990084   -2.5290846   -1.6566306 
C    -2.6918174   -2.5695274    0.6218995 
C    -0.6047202   -3.2362451    1.7167676 
C    -1.7548426   -2.3860834    1.7197668 
C     1.6945012   -3.2935200    1.1949410 
C     0.6846100   -2.6936709    2.0779254 
C     2.7734123   -2.5235701    0.7647510 
C     1.8063404   -2.4971051   -1.5383555 
C     2.8568457   -2.1315879   -0.6496362 
C    -0.2675849   -1.4159991   -2.5340293 
C     1.1797145   -1.4240949   -2.3453817 
C    -1.0013835   -0.1535106   -2.5080913 
C    -2.8835614   -1.2968100   -1.3719077 
C    -3.2956120   -1.3820394    0.0383871 
C    -2.3215662   -0.0842193   -1.8583559 
C    -3.4091260   -0.2476300    0.7679468 
C    -1.6320661   -1.0498359    2.3160167 
C    -2.6801432   -0.1242887    2.0272279 
C     0.8425745   -1.3389769    2.5347388 
C    -0.3333247   -0.4835173    2.6741980 
C     3.1129045   -1.3817858    1.5232834 
C     2.1335631   -0.7481380    2.3374900 
C     3.4497698   -0.8049559   -0.6907128 
C     3.6555822   -0.3673724    0.6517016 
C     1.8540614   -0.1844595   -2.4379128 
C     2.9923759    0.1315743   -1.6176650 
C    -0.2679070    1.0849388   -2.6762711 
C     1.1497110    1.0472177   -2.6893552 
C    -0.8916182    2.3516117   -2.3221548 
C    -2.7713839    1.1468056   -1.2085092 
C    -3.3979224    1.0503179    0.0987117 
C    -2.1131394    2.3595817   -1.4975371 
C    -2.5087337    1.2514174    2.2147917 
C    -3.0785038    1.9997962    1.0831780 
C    -0.1384176    0.9753194    2.6971483 
C    -1.2629445    1.8357128    2.5281220 
C     2.2655623    0.6982599    2.1303860 
C     3.2213888    0.9185061    1.0675806 
C     1.1677610    1.5499424    2.3325430 
C     2.9260507    1.5463085   -1.2772566 
C     1.9249518    2.1428635   -2.1142876 
C     3.0001535    1.9426112    0.1067934 
C    -0.1210636    3.4805480   -2.0110359 
C     1.2887316    3.3375020   -1.7441858 
C    -1.9801378    3.4223663   -0.5296798 
C    -2.2764004    3.1339783    0.8312702 
C    -1.1820957    3.1122863    1.8002645 
C    -0.7583447    4.1054981   -0.8345863 
C     1.2347830    2.8272074    1.6616913 
C     2.1538326    3.0136942    0.5336356 
C     1.5038231    3.8319522   -0.4163127 
C     0.0631471    3.6283549    1.4350007 
C     0.2165699    4.2614181    0.1413494 
