60 

C    -1.5087355   -3.8474276   -1.3236531 
C    -0.4969825   -4.1524830   -0.3961585 
C    -0.8989914   -3.6580546    0.9225478 
C    -2.5618191   -3.1503761   -0.6765422 
C    -2.2193169   -3.0920496    0.7395355 
C    -2.7277810   -1.8949631   -1.3430160 
C    -0.9154472   -2.9507974   -2.3267142 
C    -1.6931640   -1.7668357   -2.3776082 
C     0.7656692   -3.7187021   -0.9507938 
C     0.4827471   -2.8679867   -2.1445210 
C     1.7428568   -3.3356020   -0.0825568 
C     0.0644747   -3.0275511    1.7687708 
C     1.4364219   -3.1279240    1.3439491 
C    -0.3114050   -1.8326729    2.5503074 
C    -2.5554575   -1.9491841    1.4483733 
C    -1.6568839   -1.3843529    2.4273085 
C    -3.1463586   -0.7277827   -0.6381198 
C    -3.2250236   -0.8351469    0.7841179 
C    -2.8983536    0.5694013   -1.2457997 
C    -1.0779977   -0.5177572   -2.6209725 
C    -1.8592830    0.6726919   -2.2863262 
C     1.1581360   -1.6308669   -2.3306909 
C     0.3753384   -0.4585430   -2.7131832 
C     2.7258919   -2.3310511   -0.4953431 
C     2.4372968   -1.4452007   -1.6139400 
C     2.3745495   -2.1853586    1.7762667 
C     3.2750435   -1.8034716    0.6784403 
C     0.6939723   -0.8060235    2.8892517 
C     2.0492558   -1.0036460    2.4886116 
C     0.3007754    0.5590798    3.0394013 
C    -2.0177109    0.0133397    2.5860302 
C    -3.0306875    0.3344634    1.5881960 
C    -1.0711952    0.9627130    2.9296221 
C    -3.1551384    1.7191854   -0.4331621 
C    -3.0744540    1.5876743    1.0108040 
C    -2.5736265    2.9789375   -0.7558176 
C    -1.2464770    1.9258952   -2.5142755 
C    -1.6785249    3.0930484   -1.8062410 
C     1.0118693    0.8531453   -2.6827348 
C     0.1989063    2.0124724   -2.6417788 
C     3.0234115   -0.1705065   -1.5599060 
C     2.3592702    0.9834266   -2.1843233 
C     3.6130923   -0.4385570    0.8175527 
C     2.8614802    0.0900076    1.9512641 
C     3.6809075    0.3201884   -0.3572184 
C     1.0991269    1.6499753    2.5368868 
C     2.3632947    1.4275061    1.9228433 
C    -1.1268263    2.3062655    2.3680551 
C    -2.1829660    2.6659762    1.4984995 
C    -1.9317084    3.5535328    0.4407057 
C     0.2122944    2.7185808    2.0860074 
C    -0.4939927    3.8114120   -1.3321817 
C     0.6363098    3.2269253   -1.9147792 
C    -0.5975835    3.9616104    0.0980015 
C     0.5183715    3.5245273    0.9211140 
C     2.7562111    2.1558677   -1.5001280 
C     3.4033484    1.7124646   -0.2777563 
C     2.7205760    2.2863589    0.8154795 
C     1.8311499    3.1746088   -1.1767329 
C     1.7618426    3.2595928    0.2750305 
