60 

C    -1.7985255    3.9372320   -0.2593177 
C    -1.6922049    3.6149459    1.1197491 
C    -2.5714530    2.4872943    1.3983768 
C    -2.6304230    2.8933871   -0.8814620 
C    -3.0794667    2.0127756    0.1393662 
C    -1.9062306    2.3498472   -1.9933999 
C    -0.6307273    4.0744803   -1.0188777 
C    -0.7231154    3.1388489   -2.1418736 
C     0.6735403    3.9385547   -0.4437648 
C    -0.4179681    3.3622741    1.7067589 
C     0.7935507    3.6090655    0.9699740 
C    -1.8867031    1.5755755    2.2243945 
C    -0.5451610    2.1059904    2.4422841 
C    -2.1035051    0.1790369    2.1157215 
C    -3.1569057    0.6170660   -0.1028208 
C    -2.9976702   -0.2748740    1.0438569 
C    -1.8480048    0.9442075   -2.2122310 
C    -2.7369427    0.1152530   -1.4025439 
C    -0.6066898    0.3409589   -2.6814690 
C     0.5264457    2.5262106   -2.3360530 
C     1.4610344    3.1657933   -1.3962513 
C     0.6212474    1.1376262   -2.6389522 
C     2.5705897    2.4613153   -0.9775413 
C     1.9276174    2.8311163    1.3654748 
C     2.8960022    2.4662995    0.4187391 
C     0.5364030    1.2182903    2.6971429 
C     1.8183498    1.6685454    2.2794711 
C    -1.0779066   -0.7272615    2.6191833 
C     0.2682924   -0.2203321    2.8474994 
C    -1.2474116   -2.1265775    2.3546524 
C    -3.1102762   -1.6553327    0.8021422 
C    -2.3287883   -2.5818426    1.5681361 
C    -2.6790907   -1.2851999   -1.5764657 
C    -3.1093132   -2.1430538   -0.5458758 
C    -0.4949960   -1.1194726   -2.7252218 
C    -1.5768247   -1.9222898   -2.2874955 
C     0.8163168   -1.7262651   -2.6901534 
C     1.8924425    0.4647625   -2.3124081 
C     2.8253416    1.1172459   -1.4649391 
C     1.9577765   -0.9493828   -2.3502999 
C     3.4671785    1.1717874    0.7579533 
C     2.8477883    0.7087733    1.9533242 
C     3.4777705    0.3519766   -0.3855463 
C     1.3579401   -1.1198542    2.6514179 
C     2.5907462   -0.6580962    2.0824913 
C    -0.1091995   -3.0082555    2.0853016 
C     1.1583276   -2.4778707    2.1716621 
C    -1.8534307   -3.6531234    0.6997409 
C    -2.3022595   -3.3590123   -0.6042446 
C    -1.3662633   -3.2372775   -1.6690470 
C    -0.4688435   -3.8958688    0.9766739 
C     1.0020373   -3.0378407   -2.1125002 
C    -0.0487724   -3.7123772   -1.4587661 
C     0.4263125   -4.0341846   -0.0962165 
C     2.7677536   -1.7290456   -1.3982698 
C     3.3126744   -1.0621081   -0.2615718 
C     2.9880550   -1.5924072    1.0357837 
C     2.1619901   -2.7685964    1.1532475 
C     2.1732760   -2.9997849   -1.2705154 
C     1.7882727   -3.5089488    0.0155755 
