60 

C     0.1474249   -3.5744869   -1.7611613 
C    -0.9523834   -2.9476246   -2.3263432 
C    -2.0890076   -3.0666619   -1.4013840 
C    -0.2390667   -4.0503429   -0.4195536 
C    -1.6013940   -3.6582098   -0.1846957 
C     0.8063708   -3.7200689    0.4639862 
C     1.4009557   -2.9136856   -1.6774991 
C     1.9201422   -3.2080203   -0.3503587 
C     1.5720880   -1.5975818   -2.2185468 
C    -0.8616166   -1.5891397   -2.7478449 
C     0.3849034   -0.8977348   -2.7376601 
C    -2.7734158   -1.8408336   -1.3909983 
C    -2.0742361   -0.9255350   -2.2910955 
C    -3.3207054   -1.3177052   -0.1660804 
C    -1.9061039   -2.9969147    1.0319696 
C    -2.8578398   -1.9114715    1.0563105 
C     0.5067995   -3.0492421    1.7185939 
C    -0.8474090   -2.6983039    1.9753290 
C     1.5045370   -2.1799253    2.2612315 
C     2.8776280   -2.3893395    0.2179120 
C     2.7543553   -2.0393729    1.6032861 
C     2.6798419   -0.8033923   -1.6922272 
C     3.3568222   -1.2220823   -0.5015649 
C     2.7027835    0.5917887   -1.9941479 
C     0.3233516    0.5688595   -2.7410630 
C     1.5297443    1.2709884   -2.5498163 
C    -2.1541323    0.4735618   -2.1390645 
C    -0.9628905    1.2749007   -2.4890376 
C    -3.6315485    0.0678180   -0.1646014 
C    -3.1195193    0.9629103   -1.2095472 
C    -3.6019772    0.8095731    1.0496262 
C    -2.4683851   -1.0290123    2.1388043 
C    -1.1671573   -1.4266975    2.5985243 
C    -2.8103740    0.3144265    2.1321109 
C     1.1707281   -0.8622534    2.7853024 
C    -0.1678747   -0.4313069    2.8795807 
C     3.2299860   -0.6844924    1.7578823 
C     3.7188686   -0.2233263    0.5040505 
C     2.2412626    0.0663244    2.4451123 
C     3.3343314    1.5134243   -1.1167448 
C     3.6144311    1.1353102    0.2271526 
C     1.5345068    2.6462642   -2.0669228 
C     2.5937014    2.7501293   -1.1155323 
C    -0.9349428    2.6188382   -2.0588385 
C     0.3310333    3.2946358   -1.7967720 
C    -2.9528684    2.2743482   -0.6307987 
C    -3.1959573    2.1599464    0.7747922 
C    -1.9079512    3.0996995   -1.0678788 
C    -1.8233478    1.3487825    2.4726867 
C    -0.4749419    1.0045266    2.7186816 
C    -2.1645298    2.5294229    1.6968088 
C     1.9693162    1.4294916    2.0860410 
C     2.8107473    2.0060377    1.0850448 
C     2.2976398    3.0769671    0.2418592 
C     0.5964195    1.9456969    2.2939564 
C     0.1901272    3.9753596   -0.5424410 
C    -1.1752182    3.8421413   -0.0962589 
C    -1.1571163    3.3971645    1.2662310 
C     1.0646032    3.6657900    0.5377804 
C     0.2284603    3.1396360    1.6258322 
