60 

C    -1.3155297   -4.3359368   -0.0390201 
C     0.0909987   -4.4420214    0.1104701 
C     0.4317445   -3.8238854    1.3735880 
C    -1.8551020   -3.5923102    1.0731752 
C    -0.7796292   -3.2075147    1.9359647 
C    -2.7429471   -2.5935465    0.5558891 
C    -1.6007665   -3.5741021   -1.2170875 
C    -2.5397510   -2.5352715   -0.9028689 
C     0.7049594   -3.8982285   -1.0889978 
C    -0.3513228   -3.2495619   -1.8653355 
C     1.9337541   -3.2603384   -0.9748461 
C     1.6397588   -3.1404414    1.4871257 
C     2.4949732   -3.0857098    0.3454106 
C     1.7232548   -1.8232720    2.1440510 
C    -0.7261211   -1.8714149    2.4745192 
C     0.5637475   -1.1502461    2.6019269 
C    -2.8459316   -1.4088019    1.2492070 
C    -1.8885861   -1.0704192    2.2773052 
C    -3.1744958   -0.1910013    0.5507753 
C    -2.4658206   -1.2928591   -1.5514767 
C    -3.0506176   -0.1217273   -0.8588062 
C    -0.1707579   -1.9571004   -2.4235009 
C    -1.3288585   -1.0626363   -2.4566118 
C     2.1996222   -2.0333239   -1.7090091 
C     1.1810562   -1.3542096   -2.4203162 
C     3.2137080   -1.8491384    0.3808033 
C     2.7981124   -1.0816712    1.5139428 
C     3.1470223   -1.2504416   -0.9067997 
C     2.7808544    0.3316336    1.4456553 
C     0.6051535    0.3128110    2.6961700 
C     1.7868202    1.0438738    2.2408533 
C    -1.8343021    0.3580252    2.3346227 
C    -2.7385375    0.9178274    1.3582193 
C    -0.6466940    1.0561829    2.7080739 
C    -2.5380842    2.2131737    0.8131291 
C    -2.8549507    1.1766727   -1.4120694 
C    -2.6848156    2.3683450   -0.5951158 
C    -1.1317686    0.2594194   -2.8971368 
C    -2.0385488    1.3012267   -2.5681038 
C     1.3351214    0.1004285   -2.6276812 
C     0.2032391    0.8568995   -2.9798090 
C     3.1731856    0.1288541   -0.9732981 
C     3.2276604    0.9304080    0.2190333 
C     2.3797637    0.8312672   -1.9592544 
C     2.7792882    2.2348530   -0.1536925 
C     2.2136153    2.1769986   -1.5099606 
C     1.7088234    2.4521462    2.0479500 
C     2.2233956    3.0636360    0.8000846 
C    -0.6748944    2.4607485    2.4874880 
C    -1.6233946    3.0599202    1.5245367 
C     0.5376041    3.1944743    2.3817731 
C     1.2745933    4.0611890    0.3874199 
C    -0.9522166    4.1264321    0.8634245 
C     0.3437875    4.2774110    1.4357820 
C    -1.7469571    3.2476034   -1.2973784 
C    -1.3007194    2.5300081   -2.4452708 
C     0.0847631    2.2680337   -2.6541757 
C     1.0586605    2.9521088   -1.8433541 
C    -0.8260068    4.0362491   -0.5928272 
C     0.5890866    3.9282709   -0.8945654 
