60 

C     0.9064333   -4.2197814   -0.1454806 
C    -0.0267324   -4.1219675   -1.1365327 
C    -1.3722547   -4.0037349   -0.5056969 
C     0.1835717   -4.1103395    1.1682576 
C    -1.1797805   -3.7513073    0.9129832 
C     0.9707284   -3.3228453    1.9682550 
C     2.0517323   -3.3391676   -0.1162728 
C     2.2147047   -2.9721935    1.2483935 
C     2.1971364   -2.2991282   -1.1173998 
C     0.0734193   -3.0880409   -2.1605439 
C     1.1350255   -2.1319621   -2.1168654 
C    -2.1194564   -3.1653309   -1.2981671 
C    -1.2452185   -2.6099248   -2.3466537 
C    -2.8504968   -2.0868827   -0.7344588 
C    -1.7209002   -2.5401938    1.4788489 
C    -2.7260041   -1.8313799    0.6789092 
C     0.4737339   -2.1213306    2.5728071 
C    -0.8617847   -1.7039946    2.3546188 
C     2.5705400   -1.6756426    1.6189990 
C     1.5280090   -1.1364453    2.4802423 
C     2.9961585   -1.1434523   -0.7495226 
C     3.2042000   -0.8268837    0.6709909 
C     2.9849782   -0.0349003   -1.6429265 
C     0.8127831   -0.7644687   -2.5789549 
C     1.8234131    0.1934777   -2.4555972 
C    -1.5783934   -1.2393390   -2.4895444 
C    -2.7107895   -0.9539448   -1.6223980 
C    -0.5670408   -0.2715247   -2.6712882 
C    -2.9968675    0.3524391   -1.2178535 
C    -3.1076040   -0.5425001    1.0685359 
C    -3.5250166    0.4566200    0.1214071 
C    -1.1357353   -0.2682099    2.5481764 
C    -2.4311399    0.1728194    2.1646551 
C     1.2855888    0.2612703    2.5280874 
C    -0.0837108    0.7415359    2.6374680 
C     3.3040678    0.5220596    1.0863761 
C     2.3101447    1.0757931    1.9846751 
C     3.4330209    1.2579935   -1.2239348 
C     3.5975382    1.5386145    0.1312604 
C     1.5213662    1.6328861   -2.4636139 
C     2.5697082    2.2974564   -1.7960033 
C    -0.9159511    1.1352818   -2.4134836 
C    -2.2067946    1.4527205   -1.7796991 
C     0.1634447    2.1011250   -2.3746485 
C    -2.3707893    2.7424942   -1.1624489 
C    -3.4707299    1.7096007    0.7860779 
C    -2.7163573    1.5312326    2.0477158 
C    -3.0148908    2.8361888    0.1552142 
C    -0.3577720    2.1614979    2.3350615 
C    -1.7217061    2.5464861    2.1277107 
C    -2.0577303    3.4979622    1.0748603 
C     2.0162745    2.4427114    1.5602872 
C     2.8490706    2.7471619    0.4568282 
C     2.2729574    3.2570234   -0.7608380 
C     0.6891184    2.9678036    1.6695438 
C    -0.0266261    3.3379478   -1.6574849 
C    -1.2815964    3.6367662   -1.1185374 
C    -1.0654965    4.0365257    0.2995228 
C     0.9942938    3.7688138   -0.6822867 
C     0.3122050    3.8645080    0.6023665 
