60 

C    -0.5687099   -4.3943395   -0.3840175 
C     0.3767902   -4.0365485   -1.3309694 
C    -0.2410975   -3.1102663   -2.3076090 
C    -1.8345706   -3.7578420   -0.7721161 
C    -1.5723979   -2.8531817   -1.9040638 
C    -2.4297833   -3.2776226    0.3829121 
C    -0.3256199   -4.0945517    1.0287941 
C    -1.5015571   -3.4570748    1.5228876 
C     0.9101985   -3.5362834    1.4008101 
C     1.6623675   -3.5152303   -0.9712923 
C     1.9681094   -3.3470122    0.4030032 
C     0.6615900   -2.0622729   -2.5510289 
C     1.9148334   -2.3999977   -1.8656701 
C     0.2147977   -0.6947560   -2.6371781 
C    -2.0352816   -1.5116911   -1.8732971 
C    -1.1832981   -0.4140791   -2.3895829 
C    -2.9619048   -1.9743933    0.4222221 
C    -2.9409838   -1.1745260   -0.7750472 
C    -1.4631536   -2.2242487    2.2053058 
C    -2.4875393   -1.3527812    1.6441569 
C     0.9483461   -2.3666581    2.2693947 
C    -0.2264837   -1.6140088    2.6006648 
C     2.7795692   -2.2267739    0.8091378 
C     2.1835461   -1.6641033    2.0103340 
C     2.7464035   -1.3722075   -1.4881989 
C     3.2997883   -1.3309694   -0.1375345 
C     1.2077387    0.3651676   -2.4514301 
C     2.4805663   -0.0247041   -1.9173306 
C     0.7919505    1.7582643   -2.3250525 
C    -1.6048136    0.9778531   -2.2247615 
C    -0.6402470    2.0920049   -2.3086036 
C    -3.2292433    0.1593865   -0.5689925 
C    -2.8116741    1.1927334   -1.4782301 
C    -2.4493172    0.0400697    1.7790769 
C    -3.2219099    0.7268459    0.7840683 
C    -0.1576393   -0.1415126    2.7256751 
C    -1.2943263    0.7200312    2.3685814 
C     2.2860936   -0.3149849    2.2840386 
C     1.1246109    0.4551518    2.7080729 
C     3.5084314    0.0485076    0.1954917 
C     3.1631908    0.8349219   -0.9833059 
C     3.0973266    0.5461722    1.4493823 
C     1.7290744    2.6719127   -1.7125249 
C     2.7870099    2.1484763   -0.8742304 
C     1.2617172    3.8476962   -1.0532645 
C    -1.0282918    3.3875595   -1.7637402 
C    -0.0582037    4.2037726   -1.0901042 
C    -3.0348840    2.4191444   -0.7872793 
C    -3.1280336    2.0957707    0.6659922 
C    -2.2067057    3.4869483   -0.9394538 
C    -1.1132885    2.1507518    2.1140765 
C    -0.4948276    4.3593107    0.3362583 
C    -2.1440764    2.8506120    1.3571863 
C    -1.7768342    3.9113497    0.4373465 
C     1.3297342    1.8248958    2.3212483 
C     2.5716785    1.8748097    1.5561352 
C     2.6530132    2.7550735    0.4617047 
C     1.7091632    3.7793690    0.3640523 
C     0.2511451    2.7192436    2.0682621 
C     0.5479128    3.8408151    1.1896373 
