60 

C    -1.5310450   -4.4512437   -0.5582737 
C    -0.2079154   -4.5186091   -1.1028431 
C     0.7108533   -4.7002656   -0.0195912 
C    -1.3675916   -4.1953650    0.8814814 
C    -0.0316698   -4.3889350    1.2404760 
C    -1.9861222   -2.9342495    1.2118405 
C    -2.1553225   -3.3004179   -1.0857241 
C    -2.5991223   -2.4501804   -0.0136705 
C    -0.0135815   -3.3645678   -1.9859464 
C    -1.2643969   -2.6483821   -2.0368025 
C     1.1871910   -2.5835627   -1.9696720 
C     1.8753166   -3.9605397   -0.0001460 
C     2.1912856   -2.9812305   -1.0056534 
C     0.6894458   -3.3627570    1.9494312 
C     1.9456952   -3.2305191    1.2853563 
C    -1.3498474   -1.9557565    2.0341178 
C     0.0606901   -2.1388651    2.3750658 
C    -1.9119079   -0.6170818    1.9852304 
C    -2.8327084   -1.0930416   -0.2504170 
C    -2.8101096   -0.2147645    0.8977068 
C    -1.3542616   -1.2481270   -2.2345731 
C    -2.4247957   -0.5538034   -1.5341843 
C     1.1075824   -1.1599737   -2.3704295 
C    -0.1750328   -0.4805844   -2.5755772 
C     2.1817117   -0.3140932   -2.0100218 
C     2.8940731   -1.9223482   -0.3151472 
C     2.6101196   -2.0060899    1.1129034 
C     2.9890830   -0.6850845   -0.8755184 
C     0.8897052   -0.9367836    2.4786786 
C     2.1716969   -0.8375590    1.7973834 
C    -1.1959019    0.4277443    2.5921691 
C     0.2378399    0.2900898    2.7551544 
C    -1.4797108    1.8308556    2.3789946 
C    -3.0708743    1.1547735    0.6838497 
C    -2.4535037    2.2123424    1.4644148 
C    -2.5300707    0.8276268   -1.7061659 
C    -3.0811600    1.6307402   -0.6611801 
C    -0.2494623    0.9900022   -2.6141149 
C    -1.4948118    1.6058662   -2.3241591 
C     2.1152069    1.1277495   -2.0157108 
C     0.9488991    1.8224201   -2.4150059 
C     3.1198631    0.4873176   -0.0330422 
C     2.6211175    0.4645272    1.2967383 
C     2.8815414    1.6168595   -0.8780551 
C     0.8352691    1.5839116    2.5771563 
C    -0.2255297    2.5700685    2.4680355 
C     2.0381899    1.7068593    1.8050843 
C    -0.0512024    3.7584432    1.7581028 
C    -2.2072243    3.3761437    0.5899520 
C    -2.5829288    2.9752795   -0.7354188 
C    -1.6018215    2.9839372   -1.7841801 
C    -1.0608769    4.1623700    0.7703725 
C     0.8397170    3.1985649   -1.9870695 
C    -0.4714265    3.7750255   -1.6373440 
C    -0.3159180    4.5448117   -0.4172632 
C     2.6183094    2.8576331   -0.3269623 
C     2.2189523    2.9268844    1.0822708 
C     1.2570816    4.0003073    1.1790340 
C     1.7798127    3.7456885   -1.0630444 
C     1.0716053    4.5799384   -0.1080935 
