60 

C    -0.4232292   -0.6058211   -4.1380924 
C     0.3632661   -1.6518679   -3.7235693 
C     1.6868839   -1.1126627   -3.3040641 
C     0.4232292    0.6058211   -4.1380924 
C     1.6538625    0.3018072   -3.4090471 
C    -0.3632661    1.6518679   -3.7235693 
C    -1.6538625   -0.3018072   -3.4090471 
C    -1.6868839    1.1126627   -3.3040641 
C    -2.0538700   -1.0934818   -2.2847692 
C    -0.0815246   -2.5713021   -2.7460543 
C    -1.3553415   -2.3774693   -2.0831329 
C     2.0502936   -1.7693966   -2.1293452 
C     1.0824246   -2.8660809   -1.9225493 
C     2.5500269   -1.0428055   -1.0073345 
C     2.0538700    1.0934818   -2.2847692 
C     2.6070006    0.4114201   -1.0983869 
C     0.0815246    2.5713021   -2.7460543 
C     1.3553415    2.3774693   -2.0831329 
C    -2.0502936    1.7693966   -2.1293452 
C    -1.0824246    2.8660809   -1.9225493 
C    -2.6070006   -0.4114201   -1.0983869 
C    -2.5500269    1.0428055   -1.0073345 
C    -2.7755167   -1.1667084    0.1505649 
C    -1.5056886   -3.0559064   -0.8470625 
C    -2.2765701   -2.4927933    0.2510582 
C     0.9155138   -3.4367571   -0.6923314 
C    -0.4054031   -3.7658661   -0.2768196 
C     2.4378738   -1.7139026    0.3052047 
C     1.6380272   -2.9003080    0.4628120 
C     2.6540707   -0.9582202    1.4686386 
C     2.7755167    1.1667084    0.1505649 
C     2.9190625    0.4443740    1.3940882 
C     1.5056886    3.0559064   -0.8470625 
C     2.2765701    2.4927933    0.2510582 
C    -0.9155138    3.4367571   -0.6923314 
C     0.4054031    3.7658661   -0.2768196 
C    -2.4378738    1.7139026    0.3052047 
C    -1.6380272    2.9003080    0.4628120 
C    -2.9190625   -0.4443740    1.3940882 
C    -2.6540707    0.9582202    1.4686386 
C    -2.4699215   -1.0062063    2.6342126 
C    -1.6618169   -2.9547584    1.4991395 
C    -0.4556239   -3.6048244    1.1454100 
C     0.8027061   -3.0970614    1.6218717 
C    -1.6564975   -2.1432957    2.6423221 
C     1.9264068   -1.2470857    2.7299014 
C     0.8417687   -2.1912567    2.7344700 
C    -0.3894589   -1.7937338    3.3371442 
C     2.4699215    1.0062063    2.6342126 
C     1.8149055   -0.0364522    3.4127715 
C     1.6618169    2.9547584    1.4991395 
C     0.4556239    3.6048244    1.1454100 
C    -0.8027061    3.0970614    1.6218717 
C     1.6564975    2.1432957    2.6423221 
C    -1.9264068    1.2470857    2.7299014 
C    -1.8149055    0.0364522    3.4127715 
C    -0.5432377   -0.4492221    3.8729491 
C     0.5432377    0.4492221    3.8729491 
C    -0.8417687    2.1912567    2.7344700 
C     0.3894589    1.7937338    3.3371442 
