60 

C    -0.3135966    4.9005101    1.3120714 
C     0.8354998    5.1435370    0.5091046 
C     0.4596863    5.0324368   -0.8482949 
C    -1.4508886    4.5343142    0.4219669 
C    -0.9682911    4.5884535   -0.9055839 
C    -1.9719381    3.2895733    0.8802307 
C    -0.0520934    3.7642969    2.1166305 
C    -1.1168832    2.8160308    1.9896681 
C     1.8354777    4.0895423    0.8018646 
C     1.3118360    3.2581282    1.8512756 
C     1.2312408    3.9978622   -1.4502753 
C     2.1526664    3.4443950   -0.4291681 
C    -1.0260621    3.4158539   -1.7240456 
C     0.3570945    3.0636559   -2.0908139 
C    -2.3567968    2.2781505   -0.0234241 
C    -1.8433511    2.3163910   -1.3834591 
C    -2.6265501    0.9793910    0.5485659 
C    -0.9008773    1.4392277    2.2057434 
C    -1.8978339    0.5227630    1.7085077 
C     1.5211599    1.8665651    1.8378722 
C     0.4643164    0.9450841    2.3187167 
C     2.4017780    2.0677687   -0.4509000 
C     2.3355878    1.3096789    0.7799714 
C     0.7458957    1.7081131   -2.2756228 
C     1.9761332    1.2992803   -1.6280872 
C    -1.5907630    1.0291664   -2.0410683 
C    -0.2527953    0.6892053   -2.5111714 
C    -3.0797120    0.0040961   -0.3559972 
C    -2.4300865   -0.0229414   -1.6818216 
C    -3.2326605   -1.3158583    0.0605901 
C    -1.7501984   -0.8887528    1.9571391 
C    -2.5873292   -1.7967844    1.2381875 
C     0.6901058   -0.4479247    2.3252252 
C    -0.4521613   -1.3784751    2.4201941 
C     2.5532292   -0.1019492    0.7489435 
C     1.9450128   -0.9581302    1.7545702 
C     2.2910775   -0.0410940   -1.6460579 
C     2.8592306   -0.7063567   -0.4946237 
C     0.1313240   -0.7132661   -2.6219480 
C     1.4906128   -1.0323632   -2.3291633 
C    -2.1544346   -1.4098144   -1.9901097 
C    -2.8203090   -2.2079680   -1.0161739 
C    -0.8458965   -1.7959250   -2.4426006 
C    -2.1581369   -3.1674011    0.9745791 
C    -2.2572534   -3.3814201   -0.4790312 
C    -0.1998283   -2.7660304    2.3972178 
C    -1.0798365   -3.6950835    1.6690926 
C     2.1486571   -2.3392994    1.6542928 
C     1.1493823   -3.2442845    2.1801925 
C     2.7599730   -2.1178116   -0.6941941 
C     1.9056051   -2.3284921   -1.8734492 
C     2.6444792   -2.9599939    0.4150523 
C    -0.4069746   -3.1178459   -2.1007228 
C    -1.1543670   -3.9542842   -1.1572124 
C     1.0069155   -3.4056380   -1.8750256 
C    -0.2330119   -4.6775544    1.0096976 
C     1.1372128   -4.4408195    1.4324272 
C     1.9692398   -4.2283152    0.2631791 
C    -0.2343199   -4.7390167   -0.3991849 
C     1.1348071   -4.4125775   -0.8635398 
