60 

C    -1.1159057    3.9397541   -0.8468716 
C    -2.2972165    3.2196049   -0.9983979 
C    -2.1007576    2.2841454   -2.1114647 
C    -0.1593762    3.4567831   -1.8592229 
C    -0.7588765    2.3450875   -2.5677026 
C     1.0891260    3.3238549   -1.2509090 
C    -0.4413673    3.9857829    0.4159665 
C     0.9701253    3.7871715    0.1542053 
C    -1.0299370    3.3081086    1.5166192 
C    -2.8548677    2.4589101    0.0758951 
C    -2.2329391    2.5218959    1.3334372 
C    -2.7061491    1.0507435   -1.8096443 
C    -3.2072264    1.1318555   -0.4547240 
C    -2.1395089   -0.1508036   -2.3084565 
C    -0.0352601    1.1239404   -2.7973213 
C    -0.7734446   -0.1412789   -2.8212354 
C     1.9408250    2.2123305   -1.6033506 
C     1.3906041    1.1342082   -2.4626323 
C     2.9631017    1.8970759   -0.6615424 
C     1.7982338    3.2041962    1.1075683 
C     2.8928184    2.4183385    0.6709104 
C    -0.1754902    2.5415898    2.4101090 
C     1.2000054    2.5162187    2.2590287 
C    -2.1083345    1.2892541    2.1208683 
C    -0.8502946    1.3131875    2.7892336 
C    -3.2453658   -0.0290561    0.3551508 
C    -2.7065978    0.0529640    1.7180636 
C    -2.6547652   -1.3219444   -1.6885758 
C    -3.1663209   -1.2665638   -0.3442386 
C    -1.9820285   -2.5643398   -1.8266855 
C    -0.0364142   -1.4068119   -2.8054793 
C    -0.6638968   -2.6190506   -2.3206842 
C     2.0776407   -0.0971977   -2.4911663 
C     1.3846944   -1.3569659   -2.7238706 
C     3.4702007    0.5356923   -0.5627136 
C     3.1477133   -0.3698589   -1.5564890 
C     3.0259343    1.2771330    1.5451146 
C     1.9339422    1.2619594    2.4533429 
C     3.4230436    0.1192306    0.8233101 
C    -0.1358387    0.1010214    3.0506525 
C     1.2962384    0.0285562    2.7734178 
C    -2.1741001   -1.1229077    2.2981774 
C    -0.9116599   -1.0808706    2.9808300 
C    -2.7770533   -2.5190545    0.3321675 
C    -2.0988629   -3.3419765   -0.6108355 
C    -2.2816932   -2.4411217    1.6412865 
C     0.0512432   -3.5743344   -1.4568818 
C    -0.8211671   -3.9289286   -0.3416008 
C     2.0807487   -2.3968699   -2.0181741 
C     3.0560045   -1.7454408   -1.1860810 
C     1.4086742   -3.3752352   -1.2447615 
C     2.9082991   -1.1593248    1.1993303 
C     1.8750632   -1.2185367    2.2342037 
C     2.8906503   -2.1610963    0.1638457 
C     1.9210533   -3.2474830    0.1400464 
C    -0.2571698   -2.3286321    2.7390931 
C    -1.1129850   -3.1985894    1.9642450 
C    -0.3182284   -3.8585583    0.9808360 
C     1.0703493   -2.4011093    2.2806878 
C     1.0647663   -3.4166530    1.2040700 
