60 

C    -2.5127105   -3.7295338   -0.0683263 
C    -1.2341474   -4.1408317   -0.4796037 
C    -0.2978336   -4.0410743    0.6280872 
C    -2.3242781   -3.0902920    1.2249462 
C    -0.9467142   -3.2084210    1.6350894 
C    -2.8723945   -1.7924421    1.1956144 
C    -2.8755583   -2.6450818   -0.9515763 
C    -3.2971058   -1.5364829   -0.1877335 
C    -0.8689652   -3.4558238   -1.7289702 
C    -1.8478870   -2.4037710   -1.9398078 
C     0.4709460   -3.2130663   -1.9649907 
C     1.0486670   -3.8724218    0.3277654 
C     1.4513845   -3.6995958   -1.0404925 
C     1.8608234   -2.9923412    1.1638061 
C    -0.2304656   -2.1052590    2.2325797 
C     1.2296775   -2.1146400    2.1060372 
C    -2.2599751   -0.7219434    1.9252585 
C    -0.9103475   -0.8294161    2.4365962 
C    -2.7533479    0.5455254    1.5931061 
C    -3.1876986   -0.2467888   -0.7093485 
C    -3.3851950    0.7502421    0.2896246 
C    -1.4479513   -1.0625501   -2.2691783 
C    -2.2712694    0.0459365   -1.7992635 
C     0.8967675   -1.8691339   -2.3993520 
C    -0.0286676   -0.7934241   -2.5276395 
C     2.5248877   -2.7482419   -1.0232083 
C     2.9121845   -2.4629781    0.3176916 
C     2.2265556   -1.6515297   -1.8901595 
C     3.4779946   -1.2145301    0.5802597 
C     1.9248895   -0.9057067    2.4432294 
C     3.1577630   -0.5741914    1.8047478 
C    -0.1605830    0.4348541    2.6077291 
C     1.2375734    0.3409400    2.6727000 
C    -2.1173602    1.7900634    1.9681116 
C    -0.7401563    1.7675171    2.3086341 
C    -3.2508250    2.0729039   -0.0547239 
C    -2.6438361    2.7956258    1.0876732 
C    -1.8381876    1.4202220   -1.9782608 
C    -2.5568938    2.4535568   -1.2474507 
C     0.4931319    0.5753197   -2.4659932 
C    -0.4505122    1.6926014   -2.3973621 
C     2.6979615   -0.3400643   -1.6034212 
C     3.5260357   -0.1751429   -0.4470909 
C     1.8917682    0.7745751   -2.0837516 
C     3.2401041    0.8515462    1.6366414 
C     2.0861085    1.4458189    2.1858573 
C     3.5401303    1.0939915    0.2493392 
C     0.1132402    2.9021760    1.8233658 
C     1.5395358    2.6418900    1.6325290 
C    -1.8577368    3.7946045    0.5942938 
C    -1.9046308    3.6940009   -0.9035769 
C    -0.4849271    3.9229225    0.9985209 
C     0.0819279    3.0140855   -2.1676210 
C    -0.6572913    3.9814819   -1.3632252 
C     0.2046216    4.3583126   -0.2031956 
C     2.2894648    2.0643398   -1.6280277 
C     2.9900823    2.2027977   -0.3435671 
C     2.2064551    3.1398642    0.4471296 
C     1.4293937    3.1544064   -1.7642214 
C     1.4653773    3.9145980   -0.4858251 
