60 

C    -3.4038442   -0.4967455   -2.0183811 
C    -2.7045003    0.3841601   -2.8255523 
C    -2.7253405    1.7133913   -2.2133211 
C    -3.9488790    0.2494645   -0.8734883 
C    -3.4518474    1.6029593   -0.9718151 
C    -3.7695807   -0.5213411    0.2831634 
C    -2.7958642   -1.7069791   -1.5272578 
C    -3.2165505   -1.8245552   -0.1456469 
C    -1.4830093   -2.0850828   -1.9323142 
C    -1.3777320    0.0737996   -3.2342219 
C    -0.8070987   -1.2058017   -2.9046702 
C    -1.4062868    2.2073739   -2.2549336 
C    -0.5891803    1.2652071   -3.0269554 
C    -0.8193401    2.8559252   -1.1171069 
C    -2.8834885    2.1823161    0.1602587 
C    -1.6421281    2.9234090    0.0538817 
C    -3.2714748    0.0893337    1.5076108 
C    -2.8558926    1.4624798    1.4317082 
C    -2.5698519   -0.7514547    2.4243517 
C    -2.4631915   -2.5669298    0.7322121 
C    -2.3323672   -2.1207100    2.0988174 
C    -0.6496934   -2.8468827   -0.9794002 
C    -1.1878337   -3.1219576    0.3028365 
C     0.8193401   -2.8559252   -1.1171069 
C     0.5891803   -1.2652071   -3.0269554 
C     1.4062868   -2.2073739   -2.2549336 
C     0.8070987    1.2058017   -2.9046702 
C     1.3777320   -0.0737996   -3.2342219 
C     0.6496934    2.8468827   -0.9794002 
C     1.4830093    2.0850828   -1.9323142 
C     1.1878337    3.1219576    0.3028365 
C    -1.0390405    2.9023100    1.3555697 
C    -1.7346861    1.9423519    2.1936450 
C     0.3314048    3.1073251    1.4851032 
C    -1.4003986   -0.2720229    3.1671121 
C    -0.9750488    1.0773404    3.0628363 
C    -1.0270474   -2.4660184    2.5512483 
C    -0.3314048   -3.1073251    1.4851032 
C    -0.4300043   -1.3394826    3.2147098 
C     1.6421281   -2.9234090    0.0538817 
C     1.0390405   -2.9023100    1.3555697 
C     2.8834885   -2.1823161    0.1602587 
C     2.7253405   -1.7133913   -2.2133211 
C     2.7045003   -0.3841601   -2.8255523 
C     3.4518474   -1.6029593   -0.9718151 
C     2.7958642    1.7069791   -1.5272578 
C     3.4038442    0.4967455   -2.0183811 
C     3.9488790   -0.2494645   -0.8734883 
C     2.4631915    2.5669298    0.7322121 
C     3.2165505    1.8245552   -0.1456469 
C     3.7695807    0.5213411    0.2831634 
C     1.0270474    2.4660184    2.5512483 
C     0.4300043    1.3394826    3.2147098 
C     2.3323672    2.1207100    2.0988174 
C     0.9750488   -1.0773404    3.0628363 
C     1.7346861   -1.9423519    2.1936450 
C     2.8558926   -1.4624798    1.4317082 
C     3.2714748   -0.0893337    1.5076108 
C     1.4003986    0.2720229    3.1671121 
C     2.5698519    0.7514547    2.4243517 
