60 

C     0.2703545   -4.3977519   -0.0782645 
C     0.7230842   -3.9778863    1.1547481 
C     1.9837251   -3.2230716    0.9737209 
C     1.2663132   -3.8953737   -1.0797536 
C     2.2445350   -3.0590158   -0.4075948 
C     0.5543178   -3.3815142   -2.1280133 
C    -1.0578880   -4.0333783   -0.5296471 
C    -0.8986051   -3.5101561   -1.8541511 
C    -1.9081622   -3.3323885    0.3698642 
C    -0.1048634   -3.2191851    2.0606803 
C    -1.4272577   -2.9526100    1.6888874 
C     1.9597916   -2.1201944    1.8548947 
C     0.7040718   -2.1170439    2.5728455 
C     2.5905272   -0.9018635    1.4653490 
C     2.5638664   -1.7426850   -0.9109867 
C     2.9761244   -0.7402983    0.0652273 
C     0.8148401   -2.0594964   -2.6338189 
C     1.8872595   -1.2584767   -2.1115363 
C    -1.4908858   -2.3094220   -2.2534981 
C    -0.4513636   -1.4532826   -2.8657938 
C    -2.6756903   -2.2031177   -0.1073211 
C    -2.4820439   -1.6795323   -1.4187476 
C    -2.0154839   -1.6632576    2.0467819 
C    -2.8751013   -1.2558487    0.9855050 
C     0.1351321   -0.8890852    3.0025331 
C    -1.3021918   -0.6780514    2.8075018 
C     2.2152782    0.2383574    2.2191520 
C     0.9994928    0.2424041    2.9684498 
C     2.4429438    1.5855907    1.7307281 
C     3.1898117    0.5761093   -0.3927702 
C     3.0631732    1.7481815    0.4865692 
C     1.8435590    0.1598402   -2.4125935 
C     2.7614351    0.9954673   -1.7025071 
C    -0.5924952   -0.0495102   -2.9412422 
C     0.6084501    0.7717961   -2.9148622 
C    -2.6858218   -0.2809757   -1.6174069 
C    -1.8362808    0.4895397   -2.4964729 
C    -3.1835230    0.1162533    0.7683766 
C    -3.1922063    0.5939002   -0.5878401 
C    -1.7840413    0.6524944    2.7506047 
C    -2.7854253    1.0409709    1.7846667 
C     0.4828705    1.6072922    2.9390311 
C     1.3661207    2.4456158    2.1516152 
C    -0.8911692    1.8039671    2.9226650 
C     0.8554225    3.4734094    1.2721376 
C     2.7166383    2.8761169   -0.2960351 
C     2.5882278    2.4167863   -1.6631493 
C     1.5788457    3.7026587    0.0379269 
C     0.4159016    2.1830962   -2.7453480 
C     1.4326505    3.0002785   -2.1884828 
C     0.8446045    3.8912641   -1.1791692 
C    -1.9409496    1.8638421   -2.1004944 
C    -2.7843863    1.9371952   -0.9075673 
C    -0.8549269    2.7041040   -2.2476951 
C    -0.5583621    3.7263073   -1.2159800 
C    -2.5503199    2.4139382    1.4497301 
C    -1.4004844    2.8954255    2.1447467 
C    -0.5751861    3.6436965    1.2478825 
C    -2.4750734    2.8688479    0.0928412 
C    -1.2991802    3.7197260   -0.0269196 
