60 

C    -2.0188108   -3.8937179    0.0427527 
C    -0.6273566   -4.1316241    0.0429421 
C    -0.0221725   -3.6282503    1.2603473 
C    -2.3020300   -3.0910224    1.1793223 
C    -1.0661430   -2.8697219    1.9268917 
C    -3.0118649   -1.9376430    0.7673211 
C    -2.3210036   -3.0751858   -1.1319230 
C    -3.0331723   -1.9388528   -0.7162068 
C    -0.0757539   -3.6876794   -1.2209464 
C    -1.1044927   -2.8734388   -1.8819227 
C     1.2367881   -3.3034839   -1.2741921 
C     1.3212563   -3.1718966    1.2233822 
C     2.0348219   -3.2463805   -0.0384212 
C     1.6490558   -2.0636892    2.0718492 
C    -0.7873610   -1.5826752    2.4700740 
C     0.5961501   -1.2600721    2.6518266 
C    -2.8682193   -0.7067313    1.4399647 
C    -1.7273134   -0.4721289    2.3176003 
C    -3.4439724    0.3940333    0.7399722 
C    -2.8948454   -0.7111978   -1.4178029 
C    -3.4075517    0.4121098   -0.7383652 
C    -0.7657084   -1.5950771   -2.4359949 
C    -1.7676158   -0.5371096   -2.3348671 
C     1.6319894   -2.1834690   -2.1122340 
C     0.6529631   -1.2402851   -2.5719328 
C     3.0838829   -2.3496527   -0.2915400 
C     2.8511409   -1.7087130   -1.5803023 
C     2.7719480   -1.1870478    1.8106367 
C     3.4903960   -1.3241251    0.6119024 
C     1.0503753    0.0972092    2.7688104 
C     2.4194877    0.1378206    2.2959213 
C    -1.2760714    0.9038158    2.5073675 
C     0.1691268    1.1988554    2.6346140 
C    -3.2541849    1.6872067    1.1987158 
C    -2.1297933    1.9737326    2.0762370 
C    -3.1176249    1.7591066   -1.1361521 
C    -3.1759450    2.5863300    0.0515106 
C    -1.3639324    0.7929407   -2.5956082 
C    -2.0594673    1.9474497   -2.0438469 
C     1.0619590    0.1672455   -2.6602428 
C     0.0258838    1.1325618   -2.7521018 
C     3.2093398   -0.3444670   -1.5130892 
C     3.7580176   -0.1175296   -0.1776572 
C     2.3653893    0.6225250   -2.1425789 
C     2.9077925    1.2758034    1.6770283 
C     3.6142600    1.1339336    0.3977384 
C     0.7256687    2.4505561    2.1058152 
C     2.0739080    2.4592776    1.6084320 
C    -1.5643776    3.1977731    1.6073543 
C    -2.1799727    3.5107387    0.3076894 
C    -0.1752166    3.3831644    1.4893850 
C    -1.0792519    3.0056482   -1.8212168 
C     0.1969039    2.5162831   -2.3122558 
C    -1.1222908    3.7654653   -0.6329317 
C     0.1013964    3.9007132    0.1400163 
C     2.4954892    1.9678368   -1.6587143 
C     3.1710477    2.2043781   -0.4279264 
C     2.3623850    3.1066827    0.3651240 
C     1.3844399    2.9056986   -1.7202243 
C     1.3302536    3.6359726   -0.4473471 
