60 

C     0.0526881   -4.6948692    0.5625985 
C     1.0118147   -4.4951949   -0.4120751 
C     2.0712235   -3.6351424    0.0940418 
C     0.4420448   -3.8673497    1.7210976 
C     1.7045341   -3.2062664    1.4282634 
C    -0.6314228   -3.0200062    2.0068724 
C    -1.1905717   -4.1606780    0.0323124 
C    -1.6864037   -3.2412664    0.9693056 
C     0.4300861   -3.8775557   -1.6108152 
C    -0.9637669   -3.6556920   -1.3347480 
C     2.3003877   -2.6535508   -0.8926561 
C     1.2439938   -2.7612925   -1.9253930 
C     2.7680623   -1.3876291   -0.5247384 
C     1.9116301   -1.8427354    1.7759723 
C     2.7556916   -1.0638317    0.8900583 
C    -0.4297293   -1.6881571    2.5089185 
C     0.8824295   -1.0870219    2.4945060 
C    -1.5615290   -0.8352282    2.4371506 
C    -2.4931276   -2.1561595    0.5540465 
C    -2.6270706   -1.0915986    1.4873703 
C    -1.5661870   -2.4414560   -1.7351399 
C    -2.5884799   -1.8475265   -0.8635462 
C     0.6850734   -1.5589617   -2.4413720 
C    -0.7634594   -1.4945304   -2.5318827 
C     2.6258430   -0.3028526   -1.4876789 
C     1.4713214   -0.3313721   -2.3675355 
C     3.1880450    0.9434232   -1.1134962 
C     3.0138875    0.2732716    1.2465486 
C     3.4920159    1.1736698    0.2747548 
C     0.9955884    0.3668860    2.6571765 
C     2.1734141    0.9952813    2.1880246 
C    -1.4730462    0.5776533    2.6611490 
C    -0.1977844    1.2095628    2.8151692 
C    -3.1827998    0.1769687    1.1250214 
C    -2.5565646    1.2077470    1.9434600 
C    -3.1189130   -0.5803212   -1.2083935 
C    -3.4806179    0.4355982   -0.2123169 
C    -1.3364406   -0.2443423   -2.8482683 
C    -2.6069800    0.1118314   -2.3296316 
C     0.8364061    0.9474863   -2.6946180 
C    -0.5531491    0.9677456   -2.9156314 
C     2.6650345    2.1785629   -1.6107928 
C     1.4274468    2.1918481   -2.2541372 
C     3.0639963    2.5131850    0.6392325 
C     2.2210261    2.4050549    1.8104225 
C     2.6096908    3.1600328   -0.5115476 
C    -0.1352335    2.6043583    2.4676318 
C     1.0703741    3.1828720    1.8697086 
C    -2.4017783    2.5016157    1.4538290 
C    -1.2495953    3.2282113    1.8445676 
C    -3.1835699    1.7553888   -0.7704138 
C    -2.6242567    1.5353762   -2.0718960 
C    -1.3775956    2.0839464   -2.4304825 
C    -2.6429571    2.7657220    0.0302035 
C     0.6008752    3.2724193   -1.6611629 
C     1.3379868    3.8014313   -0.5281849 
C     0.6569495    3.9808251    0.7077646 
C    -0.7579712    3.9597229    0.6907776 
C    -0.8075666    3.1533029   -1.6505101 
C    -1.5209934    3.5615874   -0.4488912 
