60 

C    -0.2656358    4.4617809    0.0460662 
C     1.0167212    4.3123394    0.5546701 
C     0.9250379    3.5079396    1.8162182 
C    -1.1957711    3.9736304    1.0835348 
C    -0.4286386    3.1738015    2.0361813 
C    -2.2467214    3.3785759    0.4413377 
C    -0.6330477    3.8392350   -1.2177700 
C    -1.9460605    3.3185830   -1.0213268 
C     0.3070040    3.0051384   -1.9269644 
C     2.0027113    3.7258414   -0.2396349 
C     1.6822614    3.0838895   -1.4851850 
C     1.9281770    2.5151091    1.7705138 
C     2.7161801    2.7405495    0.5818835 
C     1.6277581    1.1692788    2.1378393 
C    -0.8005065    1.7885871    2.3072272 
C     0.2547595    0.8050973    2.4930222 
C    -2.7579317    2.1211433    0.8375287 
C    -2.0943349    1.3022067    1.8162093 
C    -2.3878643    2.0856436   -1.4934414 
C    -3.1627314    1.4870293   -0.4031284 
C    -0.1742681    1.7001940   -2.4797976 
C    -1.5315054    1.2098210   -2.2607211 
C     0.7827121    0.6918658   -2.7542447 
C     2.5262634    1.9091036   -1.5472049 
C     3.1187419    1.6747247   -0.2198755 
C     2.1431039    0.8056686   -2.2646888 
C     2.5087588    0.1544585    1.5961997 
C     3.1731334    0.3658138    0.3185791 
C     2.2564599   -1.1760142    1.9946326 
C    -0.0926533   -0.6191056    2.6018035 
C     0.9653711   -1.5592708    2.5534499 
C    -2.4157374   -0.1194708    1.8149399 
C    -1.4609743   -1.0923704    2.3422254 
C    -3.4476139    0.1764437   -0.4114266 
C    -3.3627188   -0.5800827    0.8337331 
C    -1.8418469   -0.2250725   -2.2729202 
C    -2.9806865   -0.6741427   -1.5002910 
C     0.4770014   -0.7147142   -2.8003957 
C    -0.8157713   -1.2270099   -2.5279406 
C     2.6237703   -0.5075307   -1.9047505 
C     3.2270311   -0.7478278   -0.6263276 
C     1.6720930   -1.4496091   -2.4198475 
C     2.7969468   -2.2600886    1.2762957 
C     3.1563070   -2.0733500   -0.1124824 
C     0.7599127   -2.9541896    2.1866603 
C     1.8915633   -3.3853788    1.3976081 
C    -1.6482532   -2.4870941    2.0333453 
C    -0.5093400   -3.3721320    1.8281078 
C    -3.3993132   -1.9245480    0.4360153 
C    -3.0848305   -1.9829248   -1.0244961 
C    -2.6348025   -2.8796511    1.0686752 
C    -0.9119845   -2.6148428   -1.9798164 
C    -0.6918673   -4.0468842    0.5240481 
C    -2.0868717   -2.9734288   -1.2189204 
C    -1.9457921   -3.6675879    0.0358884 
C     1.5867375   -2.7382797   -1.8807376 
C     2.4738269   -3.0972102   -0.8331999 
C     1.7003337   -3.9139021    0.1099809 
C     0.2732274   -3.3304888   -1.6472403 
C     0.3821688   -4.0892904   -0.3996440 
