60 

C     5.2698276    0.2594702   -0.4026075 
C     5.0453757   -0.1214329    0.9399425 
C     4.3152697   -1.3759417    0.9637463 
C     4.6333599   -0.7404937   -1.2362337 
C     3.9847503   -1.7476764   -0.3834415 
C     3.8146859   -0.0867924   -2.1876814 
C     4.5131784    1.4897714   -0.6287411 
C     3.7684554    1.3606065   -1.8175607 
C     4.1423514    0.8174749    1.5593436 
C     3.7733084    1.8239817    0.5855242 
C     3.2714236   -1.2966380    1.9562091 
C     3.1133987    0.1115539    2.2979583 
C     2.1224219   -2.0356040    1.7530740 
C     2.6463357   -2.2121875   -0.6711927 
C     1.8340807   -2.5924444    0.4413350 
C     2.4938725   -0.4933617   -2.4475694 
C     1.8912987   -1.6408028   -1.8002646 
C     2.4256685    1.7654783   -1.8759814 
C     1.6648280    0.7160248   -2.5345729 
C     2.4119335    2.2358578    0.5299190 
C     1.7433482    2.3718058   -0.7654228 
C     1.8231787    0.6579073    2.4213096 
C     1.5352353    1.8603818    1.6456070 
C     0.8685808   -1.5909496    2.3016798 
C     0.6859524   -0.2461414    2.6654702 
C     0.4132992   -2.7042914    0.3424577 
C    -0.2024280   -2.2414893    1.5651939 
C     0.4617503   -1.7277118   -1.8580364 
C    -0.3049739   -2.4463507   -0.8504587 
C     0.2950385    0.6622018   -2.5090053 
C    -0.2950385   -0.6622018   -2.5090053 
C     0.3049739    2.4463507   -0.8504587 
C    -0.4617503    1.7277118   -1.8580364 
C     0.2024280    2.2414893    1.5651939 
C    -0.4132992    2.7042914    0.3424577 
C    -0.6859524    0.2461414    2.6654702 
C    -0.8685808    1.5909496    2.3016798 
C    -1.5352353   -1.8603818    1.6456070 
C    -1.8231787   -0.6579073    2.4213096 
C    -1.7433482   -2.3718058   -0.7654228 
C    -2.4119335   -2.2358578    0.5299190 
C    -1.6648280   -0.7160248   -2.5345729 
C    -2.4256685   -1.7654783   -1.8759814 
C    -1.8912987    1.6408028   -1.8002646 
C    -2.4938725    0.4933617   -2.4475694 
C    -1.8340807    2.5924444    0.4413350 
C    -2.1224219    2.0356040    1.7530740 
C    -2.6463357    2.2121875   -0.6711927 
C    -3.1133987   -0.1115539    2.2979583 
C    -3.2714236    1.2966380    1.9562091 
C    -3.7733084   -1.8239817    0.5855242 
C    -4.1423514   -0.8174749    1.5593436 
C    -3.7684554   -1.3606065   -1.8175607 
C    -3.8146859    0.0867924   -2.1876814 
C    -4.5131784   -1.4897714   -0.6287411 
C    -3.9847503    1.7476764   -0.3834415 
C    -4.3152697    1.3759417    0.9637463 
C    -5.0453757    0.1214329    0.9399425 
C    -4.6333599    0.7404937   -1.2362337 
C    -5.2698276   -0.2594702   -0.4026075 
