60 

C     0.0115327    0.7496653   -4.1430366 
C    -1.2113925    1.1536061   -3.6801833 
C    -2.0178829   -0.0382084   -3.3182657 
C    -0.0115327   -0.7496653   -4.1430366 
C    -1.2217237   -1.2063247   -3.4794522 
C     1.2113925   -1.1536061   -3.6801833 
C     1.2217237    1.2063247   -3.4794522 
C     2.0178829    0.0382084   -3.3182657 
C     1.1547656    2.1585306   -2.4036573 
C    -1.3379507    2.1242713   -2.6400787 
C    -0.1652289    2.7360390   -2.0847863 
C    -2.6890610    0.2626865   -2.1318108 
C    -2.3585932    1.6402664   -1.7492682 
C    -2.8350984   -0.7442155   -1.1267709 
C    -1.1547656   -2.1585306   -2.4036573 
C    -2.1196436   -2.0033727   -1.3004060 
C     1.3379507   -2.1242713   -2.6400787 
C     0.1652289   -2.7360390   -2.0847863 
C     2.6890610   -0.2626865   -2.1318108 
C     2.3585932   -1.6402664   -1.7492682 
C     2.1196436    2.0033727   -1.3004060 
C     2.8350984    0.7442155   -1.1267709 
C     1.9247059    2.7844669   -0.1111619 
C    -0.3584373    3.3376304   -0.8092261 
C     0.7450316    3.5309091    0.0546582 
C    -2.4128894    2.0396360   -0.3856043 
C    -1.4780278    3.0088817    0.0452886 
C    -3.1339099   -0.2722009    0.1907753 
C    -2.8994875    1.0878687    0.5670284 
C    -2.8990375   -1.0766146    1.3683363 
C    -1.9247059   -2.7844669   -0.1111619 
C    -2.3215133   -2.3215451    1.2277964 
C     0.3584373   -3.3376304   -0.8092261 
C    -0.7450316   -3.5309091    0.0546582 
C     2.4128894   -2.0396360   -0.3856043 
C     1.4780278   -3.0088817    0.0452886 
C     3.1339099    0.2722009    0.1907753 
C     2.8994875   -1.0878687    0.5670284 
C     2.3215133    2.3215451    1.2277964 
C     2.8990375    1.0766146    1.3683363 
C     0.3091385    3.4467160    1.4431097 
C    -1.0407455    3.0493347    1.4479922 
C     1.2963539    2.7460759    2.1934931 
C    -2.4920870    1.1357266    1.9699879 
C    -2.5389911   -0.2006900    2.4796249 
C    -1.4972071    2.0779698    2.4056952 
C    -1.5970742   -0.6321646    3.4351460 
C    -1.2963539   -2.7460759    2.1934931 
C    -0.3091385   -3.4467160    1.4431097 
C     1.0407455   -3.0493347    1.4479922 
C    -0.8903887   -1.8914091    3.2139301 
C     2.4920870   -1.1357266    1.9699879 
C     2.5389911    0.2006900    2.4796249 
C     1.4972071   -2.0779698    2.4056952 
C     0.5442475   -1.6259270    3.3972151 
C     0.8903887    1.8914091    3.2139301 
C    -0.5442475    1.6259270    3.3972151 
C    -0.6574062    0.3127871    3.9236309 
C     1.5970742    0.6321646    3.4351460 
C     0.6574062   -0.3127871    3.9236309 
