60 

C    -0.3604035    4.7351132   -0.0863305 
C    -1.4271566    4.1237420    0.7241864 
C    -0.8628559    3.6556923    1.9142991 
C     0.8971449    4.4029976    0.5273550 
C     0.6113198    3.8147132    1.7834705 
C     1.6768138    3.6072836   -0.4124622 
C    -0.3988356    4.0840634   -1.3322681 
C     0.8805172    3.4582072   -1.6216670 
C    -2.1911482    3.2078195   -0.0820743 
C    -1.5906415    3.2585128   -1.4281149 
C    -2.5912283    1.9460075    0.4303130 
C    -1.1107866    2.3358918    2.3666919 
C    -2.0599914    1.4953661    1.7274689 
C     1.2155674    2.6153201    2.2025197 
C     0.1687941    1.7279341    2.6967659 
C     2.4647388    2.5120800    0.0447034 
C     2.2814839    2.0323333    1.4310990 
C     2.7788391    1.5085436   -0.9254586 
C     0.9132801    2.2529167   -2.3785469 
C     1.9807863    1.3494538   -2.1163251 
C    -1.5513117    2.1265513   -2.2248607 
C    -0.3173423    1.6430941   -2.8032163 
C    -2.8980642    0.9048407   -0.5554071 
C    -2.3393724    0.9774957   -1.8606275 
C    -3.1847201   -0.3861040   -0.1013483 
C    -1.9955787    0.0730122    2.0246050 
C    -2.8854190   -0.7558859    1.2903121 
C     0.3370932    0.3287705    2.7635000 
C    -0.8037005   -0.5569427    2.5754089 
C     2.5650357    0.6868656    1.7259048 
C     1.6417288   -0.1505509    2.4682237 
C     3.2664649    0.2055697   -0.5544835 
C     3.2194132   -0.1891455    0.7840464 
C     1.9046341   -0.0582070   -2.4355213 
C     2.8336914   -0.7405445   -1.5739442 
C    -0.4398075    0.2165037   -2.9188197 
C    -1.7416946   -0.1936197   -2.4456391 
C     0.6636464   -0.6837486   -2.7738547 
C    -2.9836838   -1.5586139   -0.9130540 
C    -2.0127454   -1.5003230   -1.9767001 
C    -2.7793181   -2.1378597    1.3598685 
C    -2.9622003   -2.6685685   -0.0166653 
C    -0.5740900   -1.9984933    2.4313730 
C    -1.6629397   -2.7967912    1.9445686 
C     1.8592259   -1.5321349    2.1380224 
C     2.8873107   -1.5561734    1.1140850 
C     0.8052667   -2.4897259    2.1816032 
C     2.6419277   -2.0683432   -1.2793730 
C     2.8230579   -2.5267017    0.1081146 
C     0.4060810   -2.0828910   -2.4076616 
C    -0.9690835   -2.5372959   -2.0800361 
C     1.5156713   -2.8040826   -1.8435226 
C    -2.1308102   -3.7320656   -0.2057824 
C    -1.4089817   -3.9482269    1.0836182 
C    -1.1336146   -3.7203992   -1.2733278 
C     1.0062539   -3.6737496    1.3568478 
C     1.9701488   -3.6234337    0.3123079 
C     1.2808095   -3.9075100   -0.9703671 
C    -0.1402538   -4.3489115    0.7884178 
C     0.0110332   -4.3596518   -0.7022403 
