60 

C    -1.7851669   -4.3911492    0.5130904 
C    -0.8303711   -4.7080306   -0.4615145 
C     0.5027669   -4.5241008    0.0471992 
C    -1.0447522   -3.8534316    1.6432829 
C     0.3875668   -3.9383926    1.3621320 
C    -1.5472919   -2.5668512    1.9429799 
C    -2.5729760   -3.2921410   -0.0222928 
C    -2.5767532   -2.2405756    0.9202047 
C    -0.9830153   -3.8109453   -1.6098027 
C    -2.1138709   -2.9460569   -1.3588560 
C     1.2376629   -3.7986469   -0.9578679 
C     0.2795129   -3.2658080   -1.9580916 
C     2.2553673   -2.9850727   -0.5514176 
C     1.2568720   -2.8683512    1.7432958 
C     2.3854046   -2.6515255    0.8741347 
C    -0.7221460   -1.5073575    2.4176269 
C     0.7256118   -1.6692969    2.4072736 
C    -1.3145228   -0.1811886    2.4070842 
C    -2.7526477   -0.9163280    0.5014758 
C    -2.4132115    0.1088863    1.4773442 
C    -2.0337254   -1.5959889   -1.7443891 
C    -2.6697204   -0.5926025   -0.9024302 
C     0.3922520   -1.9087070   -2.3874159 
C    -0.8449341   -1.1380175   -2.4722605 
C     2.5945116   -1.7719293   -1.2978514 
C     1.6429247   -1.1716757   -2.1799326 
C     3.1233640   -1.4636611    0.9318899 
C     3.3601445   -0.9585911   -0.4302606 
C     1.5325525   -0.4518214    2.4787162 
C     2.7625684   -0.3714340    1.7317999 
C    -0.5233353    0.9156636    2.8020040 
C     0.9063376    0.7900527    2.7494279 
C    -0.8788770    2.2860816    2.5036072 
C    -2.7004659    1.4260026    1.1351622 
C    -2.0330475    2.5480390    1.7622045 
C    -2.6143220    0.7910117   -1.2778322 
C    -2.9142394    1.7781119   -0.2795726 
C    -0.7413163    0.2298474   -2.7434151 
C    -1.7416778    1.1827348   -2.3338626 
C     1.6907175    0.2814007   -2.3232558 
C     0.5306944    0.9297932   -2.8142713 
C     3.2854639    0.4313402   -0.4153874 
C     3.0500402    0.8363765    0.9647836 
C     2.5794773    1.1015737   -1.4732776 
C     1.4216664    2.0668676    2.2686169 
C     0.3509969    3.0286226    2.2215112 
C     2.4315830    2.0606292    1.2476770 
C     0.3588289    4.0689688    1.2579505 
C    -2.0194045    3.6355214    0.8135314 
C    -2.5268255    3.1150248   -0.4617419 
C    -0.8813007    4.3978205    0.5872901 
C    -1.1556325    2.5056629   -2.3760729 
C     0.2775352    2.3314736   -2.6362633 
C    -1.6117495    3.5135964   -1.5050713 
C    -0.6372853    4.3888105   -0.8805771 
C     2.2653169    2.4512625   -1.2347879 
C     2.2955386    2.9925480    0.1488076 
C     1.3808843    4.0416386    0.2367010 
C     1.2038664    3.1267389   -1.9320364 
C     0.7165542    4.1775764   -1.0769968 
