60 

C     0.9961033   -4.7141817    0.3138960 
C     1.3658063   -4.1567348   -0.9905581 
C     2.4434457   -3.2926525   -0.8027193 
C     1.6517769   -3.8900965    1.3198961 
C     2.6326418   -3.1262398    0.6732709 
C     0.6386134   -3.1936305    2.1022720 
C    -0.3805433   -4.5192849    0.4579474 
C    -0.6424957   -3.7283306    1.6616458 
C     0.1787509   -3.6426154   -1.6511837 
C    -0.9434929   -4.0216649   -0.8025050 
C     0.1818960   -2.3535277   -2.2816558 
C     2.4596657   -2.0065536   -1.3854677 
C     1.3962463   -1.5325056   -2.2272928 
C     2.7633065   -1.7536816    0.9272497 
C     2.9106458   -1.0883216   -0.3636086 
C     0.7589921   -1.7929481    2.3799744 
C     1.9228090   -1.0755384    1.8732048 
C    -0.4655932   -0.9865956    2.5283345 
C    -1.7822760   -2.9374636    1.6824356 
C    -1.7059928   -1.5784066    2.2014252 
C    -2.0992656   -3.2481894   -0.7407647 
C    -2.6607560   -2.9182993    0.5371959 
C    -1.0963429   -1.6283142   -2.3598351 
C    -2.2143628   -2.0691915   -1.5948664 
C    -1.0869756   -0.2464118   -2.7021075 
C     1.3499579   -0.0961679   -2.4446999 
C     0.1396224    0.4945827   -2.8914310 
C     2.8008302    0.2813803   -0.4807041 
C     2.2247644    0.8120054   -1.7030000 
C     1.9392464    0.3621014    1.8285698 
C     2.6562987    1.0310305    0.7554753 
C    -0.4026713    0.4743023    2.5555120 
C     0.8858026    1.1324321    2.4723234 
C    -1.5688323    1.2581372    2.1684529 
C    -2.6942767   -0.7800786    1.4874682 
C    -3.1783852   -1.5899254    0.4258866 
C    -3.0261694   -1.0891022   -0.9065454 
C    -2.5622304    0.6059168    1.3384032 
C    -2.0548231    0.6942721   -2.1997621 
C    -2.8854452    0.2982673   -1.1098741 
C    -2.8858173    1.1984568    0.0387922 
C    -0.1429555    1.9090058   -2.7676784 
C    -1.5175232    2.0310497   -2.3104829 
C     2.0285909    2.2181637   -1.7673606 
C     0.8087149    2.8047523   -2.3069588 
C     2.6240744    2.4380441    0.6406374 
C     2.4055619    3.0287855   -0.6722664 
C     0.9479010    2.5650991    2.4030017 
C     1.9181235    3.2209988    1.5692745 
C    -1.4614328    2.6687799    2.0415256 
C    -0.2521186    3.3327442    2.3050946 
C    -2.5518184    2.5610297   -0.1778603 
C    -1.8541179    3.0143822   -1.3951746 
C    -2.0473562    3.3266984    0.8805798 
C     0.4394385    3.9671118   -1.4851534 
C     1.5210026    4.1730754   -0.5483361 
C     1.2617704    4.3333721    0.8377692 
C    -0.0595705    4.4186295    1.2996419 
C    -0.9021529    4.0635999   -1.0199157 
C    -1.1266069    4.3384472    0.3826120 
