60 

C     0.9303615    4.4825291   -0.2882762 
C     0.5721411    3.9505893   -1.6180688 
C    -0.8177240    3.7865246   -1.6296466 
C    -0.2411409    4.4752743    0.5423636 
C    -1.3467241    4.1495218   -0.2790574 
C     0.0500175    3.6183523    1.6920188 
C     1.8961606    3.6220360    0.2597210 
C     1.4083295    3.0829398    1.5254767 
C     1.4035742    2.8217859   -1.8893966 
C     2.3171067    2.6837309   -0.7518975 
C     0.8591359    1.6122247   -2.4199154 
C    -1.3986240    2.5493271   -2.0064738 
C    -0.5906387    1.4774834   -2.5032521 
C    -2.2684014    3.1459280    0.0944238 
C    -2.4277067    2.2153716   -1.0254765 
C    -0.9182933    2.7371651    2.1413668 
C    -2.1644618    2.5567789    1.3880298 
C    -0.5533746    1.4294408    2.6586249 
C     1.7392783    1.7690931    1.8789171 
C     0.7574247    0.9140890    2.5653028 
C     2.8230014    1.4467203   -0.3709623 
C     2.7405507    1.0870479    1.0490486 
C     1.6769125    0.4134293   -2.2990044 
C     2.7791605    0.3653221   -1.3472490 
C     1.0873261   -0.8173082   -2.6652492 
C    -1.1919944    0.1514797   -2.5220537 
C    -0.3369113   -0.9410341   -2.7880355 
C    -2.8841860    0.9074406   -0.8517123 
C    -2.4420899   -0.1106993   -1.8068964 
C    -2.5970596    1.2307361    1.5745129 
C    -1.6527955    0.5359534    2.4520292 
C    -3.1836699    0.4707976    0.5159261 
C    -1.5207237   -0.8682299    2.4521707 
C     0.9405823   -0.5355438    2.6231454 
C    -0.1875252   -1.4498471    2.5601650 
C     3.1097931   -0.1958002    1.4098828 
C     2.2390315   -1.0205104    2.2723085 
C     3.3211815   -0.8782588   -0.9607252 
C     3.6856224   -1.0767188    0.4246496 
C     1.6034008   -2.0960887   -2.2000257 
C     2.7468563   -2.1375615   -1.4105957 
C    -0.6973870   -2.3089533   -2.4309020 
C     0.4841388   -2.9912724   -1.9682491 
C    -2.8306634   -1.4505046   -1.5708789 
C    -1.9542728   -2.5693015   -1.8973325 
C    -3.3640917   -0.8925075    0.7710825 
C    -2.5828023   -1.5801683    1.8054361 
C    -3.4831460   -1.8086801   -0.3253353 
C    -2.0608992   -3.5364585   -0.8160472 
C    -2.3999528   -2.9180671    1.3657591 
C    -3.0676422   -3.1041268    0.0913485 
C     0.0131227   -2.7841167    1.9789140 
C     0.4158374   -3.7090916   -0.7263527 
C    -1.0615235   -3.4127870    1.2789388 
C    -0.8595501   -3.8651216   -0.1023053 
C     2.4396496   -2.3649998    1.8858495 
C     3.4165092   -2.4175459    0.7967724 
C     2.7844150   -3.0716966   -0.2871164 
C     1.3131017   -3.1617136    1.5414313 
C     1.5322521   -3.6143989    0.1628732 
