60 

C     4.2207491   -0.5069473   -0.4304127 
C     4.0888609    0.9349933   -0.3741759 
C     3.4619538    1.3770748   -1.5709104 
C     3.6539324   -0.9621625   -1.6472200 
C     3.2600799    0.2105965   -2.4040358 
C     2.6384613   -1.9464943   -1.3105493 
C     3.7114889   -1.2996407    0.6509433 
C     2.6806867   -2.1867530    0.1116058 
C     3.4662092   -0.6669756    1.8692285 
C     3.4165781    1.5391601    0.7394937 
C     3.2510502    0.8085034    1.8991173 
C     2.3154724    2.1910969   -1.2223599 
C     2.2714587    2.3196478    0.2073520 
C     1.1082039    2.1420422   -1.9781520 
C     2.1042426    0.1444888   -3.1263553 
C     1.1429781    1.2567665   -3.1208362 
C     1.4082797   -2.0015691   -2.0139620 
C     1.3022533   -1.0953439   -3.1379948 
C     0.1691840   -2.3979033   -1.3202003 
C     1.4767660   -2.4690167    0.8313239 
C     0.2002427   -2.5838344    0.1267964 
C     2.4796717   -1.2167008    2.7039001 
C     1.4688887   -2.0859810    2.2229885 
C     2.1065927    1.0726075    2.7402281 
C     1.7958660   -0.1386624    3.4203026 
C     1.0475346    2.4415564    0.8965593 
C     1.0202562    1.9245850    2.2823371 
C    -0.1691840    2.3979033   -1.3202003 
C    -0.2002427    2.5838344    0.1267964 
C    -1.4082797    2.0015691   -2.0139620 
C    -0.0502633    0.7433287   -3.6231142 
C     0.0502633   -0.7433287   -3.6231142 
C    -1.3022533    1.0953439   -3.1379948 
C    -1.1082039   -2.1420422   -1.9781520 
C    -1.1429781   -1.2567665   -3.1208362 
C    -2.1042426   -0.1444888   -3.1263553 
C    -2.3154724   -2.1910969   -1.2223599 
C    -1.0475346   -2.4415564    0.8965593 
C    -2.2714587   -2.3196478    0.2073520 
C     0.2253583   -1.7208427    2.8951496 
C     0.4803364   -0.5129223    3.6829525 
C    -1.0202562   -1.9245850    2.2823371 
C    -0.2253583    1.7208427    2.8951496 
C    -0.4803364    0.5129223    3.6829525 
C    -1.4767660    2.4690167    0.8313239 
C    -1.4688887    2.0859810    2.2229885 
C    -2.6384613    1.9464943   -1.3105493 
C    -2.6806867    2.1867530    0.1116058 
C    -3.2600799   -0.2105965   -2.4040358 
C    -3.4619538   -1.3770748   -1.5709104 
C    -3.6539324    0.9621625   -1.6472200 
C    -3.4165781   -1.5391601    0.7394937 
C    -3.7114889    1.2996407    0.6509433 
C    -4.0888609   -0.9349933   -0.3741759 
C    -4.2207491    0.5069473   -0.4304127 
C    -2.1065927   -1.0726075    2.7402281 
C    -1.7958660    0.1386624    3.4203026 
C    -2.4796717    1.2167008    2.7039001 
C    -3.2510502   -0.8085034    1.8991173 
C    -3.4662092    0.6669756    1.8692285 
