60 

C     1.1717826    4.0715982    0.7157990 
C     1.4084308    3.8669957   -0.6517110 
C     2.5075680    2.8973745   -0.7788726 
C     2.0025591    3.0981556    1.4614330 
C     2.7990463    2.3789319    0.5331800 
C     1.1576573    2.3964622    2.3725351 
C    -0.1411444    3.9726405    1.1945984 
C    -0.1348409    3.0063038    2.3161486 
C    -1.2211511    3.6387882    0.3396995 
C     0.3563254    3.4751647   -1.5358281 
C    -0.9990423    3.3456100   -1.0628699 
C     2.2182601    2.0101620   -1.8194004 
C     0.9177581    2.4116647   -2.3708198 
C     2.6005982    0.6344416   -1.7327301 
C     3.0125395    0.9866897    0.7040491 
C     3.2258405    0.1787869   -0.4948059 
C     1.2575376    0.9734643    2.5061447 
C     2.3827171    0.3315550    1.8502039 
C     0.0470524    0.1876857    2.7643863 
C    -1.2805351    2.2219288    2.2600916 
C    -2.0635710    2.7222129    1.1134431 
C    -1.2452450    0.8173691    2.5499036 
C    -2.9721625    1.9122164    0.5126455 
C    -1.8722723    2.3327106   -1.6921212 
C    -2.9902894    1.8020008   -0.9489438 
C     0.1082319    1.4450846   -2.9109919 
C    -1.3188917    1.4424243   -2.6546507 
C     1.8171547   -0.3287480   -2.4907611 
C     0.5684160    0.0760125   -3.0241258 
C     1.9384238   -1.7281858   -2.1936511 
C     3.4205709   -1.2159580   -0.3153250 
C     2.8941779   -2.1523879   -1.2571967 
C     2.4808398   -1.0802509    1.9383229 
C     3.2067587   -1.8029648    0.9783081 
C     0.1325378   -1.2743624    2.7448838 
C     1.3691856   -1.8995001    2.4296546 
C    -1.0597223   -2.0442417    2.5141073 
C    -2.3928824    0.0243421    2.0843706 
C    -3.2862295    0.6131777    1.1014992 
C    -2.2955214   -1.3786255    2.0937457 
C    -3.5044972    0.5208093   -1.2164019 
C    -3.7732695   -0.1785893    0.0444435 
C    -1.7480788    0.0615486   -2.7789834 
C    -0.5838201   -0.7784190   -2.9339515 
C    -2.8514646   -0.4134689   -2.0675684 
C     0.7704008   -2.6071282   -2.1152185 
C    -0.5245279   -2.0957878   -2.3585507 
C     2.3437295   -3.3139809   -0.5398147 
C     2.5399681   -3.0982030    0.8193936 
C     1.4316789   -3.1745465    1.7327037 
C     1.0244116   -3.5783612   -1.0563119 
C    -0.9788055   -3.2842058    1.8351348 
C     0.2381147   -3.7606166    1.2784553 
C     0.0028911   -3.9103690   -0.1653461 
C    -2.8748359   -2.1842446    1.0303958 
C    -3.4201815   -1.5403486   -0.0924222 
C    -2.7858606   -1.7137263   -1.3948577 
C    -1.6580822   -2.5691897   -1.5370582 
C    -2.0105512   -3.2779892    0.8107423 
C    -1.3656885   -3.4699132   -0.4391321 
