60 

C     0.2481033   -3.8228486    2.1170802 
C     0.6163712   -4.1756761    0.7713641 
C     1.7755494   -3.4251219    0.4009703 
C     1.1045505   -2.7596970    2.5218141 
C     2.1157297   -2.5545674    1.5406767 
C     0.3315811   -1.5968314    2.9139437 
C    -1.0571613   -3.2480060    2.0400113 
C    -1.0499774   -1.9132587    2.6105696 
C    -0.5442513   -4.0423800   -0.0779492 
C    -1.6098022   -3.4225041    0.7324517 
C    -0.4073453   -3.6449505   -1.4184913 
C     1.9102770   -2.8944162   -0.9337947 
C     0.8396767   -3.0432850   -1.8700550 
C     2.7201975   -1.7485966   -1.0799551 
C     2.6709506   -1.2707466    1.3583034 
C     3.2760161   -1.0413326    0.0788407 
C     0.8279474   -0.2933411    2.7397664 
C     2.1163017   -0.1025516    2.0736435 
C    -0.1694207    0.7745842    2.7426668 
C    -1.9423236   -0.9262804    2.1527089 
C    -1.5720114    0.4598101    2.4521670 
C    -2.4913185   -2.4324156    0.2034561 
C    -2.7967606   -1.2506613    1.0100194 
C    -1.4759216   -2.9064491   -1.9990564 
C    -2.4836187   -2.2829369   -1.2314809 
C     0.4997827   -1.9225543   -2.7460887 
C    -0.9034069   -1.8827564   -2.8561533 
C     2.4873806   -0.7443847   -2.1143897 
C     1.2131156   -0.6870768   -2.7623277 
C     3.5989035    0.2519072   -0.3245378 
C     3.1120926    0.4373699   -1.6953691 
C     2.4713659    1.2254259    1.6376519 
C     3.2312885    1.3925736    0.4147252 
C     0.2845296    2.0903571    2.5270371 
C     1.6237781    2.3316137    2.0009678 
C    -0.5842560    3.1423499    2.0252268 
C    -2.3961339    1.4917865    1.9261717 
C    -1.8730772    2.8196160    1.6232454 
C    -3.4049643   -0.1443283    0.3574236 
C    -3.3141494    1.1426074    0.8983821 
C    -2.7261963   -0.9711648   -1.8388091 
C    -1.6289840   -0.6719193   -2.7639673 
C    -3.2635689    0.0283045   -1.0921955 
C     0.4940691    0.5997092   -2.8112417 
C    -0.9762710    0.5877159   -2.7569075 
C     2.5031937    1.6954914   -1.7959281 
C     2.8193467    2.4088559   -0.5506159 
C     1.1842367    1.8097813   -2.3814018 
C     1.5835371    3.5215145    1.2185777 
C     0.2236577    4.0002061    1.1922102 
C     2.0374852    3.4688749   -0.1553307 
C     0.4286451    2.9719150   -1.9771239 
C    -0.1608097    4.2547025   -0.1463875 
C     0.9408147    3.8762999   -1.0073261 
C    -2.3175936    3.1848962    0.2663533 
C    -3.1393330    2.1322248   -0.1749857 
C    -2.8915709    1.4132117   -1.3656141 
C    -1.7120398    1.7095725   -2.1503937 
C    -1.3755996    3.7003578   -0.6536374 
C    -1.0226082    2.8994035   -1.8169114 
