60 

C    -0.7453784   -4.2958281    1.2283183 
C     0.3413344   -4.2867551    0.2741014 
C     1.4226728   -3.5445366    0.8025227 
C    -0.4064769   -3.3570901    2.2645357 
C     0.9051915   -2.8814303    2.0223349 
C    -1.4145753   -2.3171629    2.2904027 
C    -1.8534924   -3.7513791    0.5396089 
C    -2.3758598   -2.6108426    1.2458272 
C    -0.1464826   -3.9562003   -1.0574871 
C    -1.5538854   -3.6161200   -0.8894542 
C     0.6641509   -3.1646131   -1.8861564 
C     2.3103324   -2.8458320   -0.0576484 
C     1.9559869   -2.7073943   -1.4451423 
C     3.0316283   -1.7707081    0.5432183 
C     1.2906299   -1.5193306    2.3308606 
C     2.4984038   -1.0991440    1.7502636 
C    -1.0926835   -0.9570199    2.6106646 
C     0.2878566   -0.5168442    2.7047915 
C    -2.0733641   -0.0076091    2.2282797 
C    -3.0090171   -1.5538288    0.5343759 
C    -3.0141034   -0.2893212    1.1783694 
C    -2.0941623   -2.5270411   -1.5683515 
C    -2.9367508   -1.5562979   -0.9006650 
C     0.0751967   -2.0640510   -2.6501462 
C    -1.2768056   -1.7799113   -2.5193099 
C     2.2381850   -1.4409687   -2.1228902 
C     1.0430718   -0.9849161   -2.7736804 
C     3.6049526   -0.7675302   -0.2453196 
C     3.1027143   -0.5043726   -1.5702994 
C     2.8329481    0.2954118    1.6906940 
C     3.5818592    0.4789663    0.4775954 
C     0.5967854    0.9043463    2.5924684 
C     1.9182847    1.2971336    2.1132476 
C    -1.8060186    1.4050329    2.2405048 
C    -0.4925706    1.8885601    2.4815510 
C    -3.2214601    0.9503218    0.4697804 
C    -2.6806607    2.0258826    1.2631275 
C    -2.7819696   -0.2917070   -1.5744470 
C    -1.6960349   -0.4091620   -2.5171935 
C    -3.0405147    0.9565357   -0.9480118 
C     0.6640012    0.3888166   -2.7751737 
C    -0.7678359    0.6688602   -2.7320034 
C     2.7985925    0.9142894   -1.6653119 
C     3.2602116    1.5224477   -0.4151803 
C     1.5943481    1.3957755   -2.2420021 
C     2.0844633    2.5881256    1.4668099 
C     2.6291791    2.6311408    0.1022067 
C    -0.2241327    3.2438067    2.0029225 
C     1.0993960    3.5708069    1.5235767 
C    -2.3018537    3.2345787    0.6618944 
C    -1.1515730    3.9108881    1.1576122 
C    -2.4100496    2.1080361   -1.5363070 
C    -1.2034691    1.9498376   -2.3422695 
C    -2.2277941    3.2751509   -0.7796754 
C     1.1025035    2.7377914   -1.8288652 
C     1.7419490    3.4141015   -0.7146404 
C     0.9734383    4.2010338    0.2080223 
C    -0.3818816    4.4273612   -0.0130222 
C    -0.2836653    3.0463639   -2.0486273 
C    -0.9857461    3.9435444   -1.1812079 
