60 

C    -1.3146513   -4.6259300    0.0373611 
C    -1.8947630   -3.8316710    1.1234484 
C    -2.8248489   -2.9620716    0.5575837 
C    -1.6485962   -3.9353233   -1.2148287 
C    -2.6571676   -3.0197008   -0.9369507 
C    -0.4271156   -3.4439547   -1.8330641 
C     0.0669788   -4.5644059    0.1794860 
C     0.6554575   -4.0117634   -1.0462734 
C    -0.8222682   -3.2685408    1.9330109 
C     0.4000546   -3.8793612    1.4373625 
C    -0.8160141   -1.8773432    2.2953052 
C    -2.8554445   -1.6080582    0.9234893 
C    -1.9403176   -1.0484710    1.8804958 
C    -2.5866042   -1.6935000   -1.4066100 
C    -2.9917976   -0.8492317   -0.3053509 
C    -0.3180818   -2.0874806   -2.3086014 
C    -1.4740526   -1.2020317   -2.1806008 
C     1.0097025   -1.4442300   -2.3189148 
C     1.8699542   -3.3595189   -0.9458246 
C     2.0933138   -2.1317889   -1.6975466 
C     1.6037132   -3.2035060    1.5083357 
C     2.4787592   -3.1991845    0.3579668 
C     0.4784369   -1.1781184    2.4561172 
C     1.6616318   -1.8730530    2.1023080 
C     0.5341395    0.2861068    2.5208890 
C    -1.8560500    0.3890452    1.9187439 
C    -0.7042489    1.0477948    2.5148712 
C    -2.8274923    0.5132415   -0.3309557 
C    -2.5960403    1.1695647    0.9391920 
C    -1.3446546    0.2385308   -2.2767814 
C    -2.2759347    1.0895363   -1.5410794 
C     1.1155538    0.0132153   -2.4918463 
C    -0.0728844    0.8443095   -2.6306977 
C     2.2766084    0.6826771   -1.9959833 
C     3.0830713   -1.3759469   -0.9567236 
C     3.1718703   -1.9625640    0.3516599 
C     2.7510560   -1.1563811    1.4593321 
C     3.1272904   -0.0082285   -1.0615280 
C     1.7444092    0.9858012    2.1107544 
C     2.7477996    0.2468048    1.3711689 
C     3.1791388    0.8269806    0.1240740 
C     1.7129686    2.4021914    1.9012154 
C    -0.6527363    2.4802613    2.4986483 
C     0.5996889    3.1498374    2.2635363 
C    -2.4908632    2.5797254    0.9086818 
C    -1.6324238    3.2526964    1.8070746 
C    -2.1477066    2.4955138   -1.5608309 
C    -2.3983833    3.2480589   -0.3674304 
C     0.0605481    2.2802341   -2.5583217 
C    -1.0189658    3.1001751   -2.1874556 
C     2.2773420    2.0807940   -1.6189453 
C     2.8204319    2.1561330   -0.2608085 
C     2.2379590    3.0106103    0.6554932 
C     1.2522780    2.9148598   -1.9795622 
C     0.3990874    4.2602709    1.3079635 
C    -0.9736327    4.3645144    1.0676835 
C    -1.4652211    4.3705382   -0.2678829 
C    -0.5551754    4.2214591   -1.3428783 
C     1.3320408    4.0651000    0.2291235 
C     0.8428521    4.0347773   -1.1180986 
