60 

C    -2.6812941    0.3426394   -2.7136524 
C    -1.4137086    0.0728743   -3.2893489 
C    -0.6133083    1.2751653   -3.1425408 
C    -2.6516363    1.6852659   -2.1311273 
C    -1.3767043    2.2290113   -2.3255358 
C    -3.2746435    1.6513702   -0.8419641 
C    -3.2795776   -0.5253109   -1.7822965 
C    -3.7504007    0.2738940   -0.6330111 
C    -2.6883988   -1.7977854   -1.5440765 
C    -0.7917307   -1.2104015   -3.0689710 
C    -1.4537833   -2.1341562   -2.1723152 
C     0.6133083   -1.2751653   -3.1425408 
C     0.7917307    1.2104015   -3.0689710 
C     1.4137086   -0.0728743   -3.2893489 
C     1.4537833    2.1341562   -2.1723152 
C    -0.7337485    2.9543653   -1.2515277 
C     0.6844504    2.9509275   -1.2309108 
C    -2.6943723    2.3648057    0.2068380 
C    -1.4249423    3.0401789    0.0030978 
C    -2.6883988    1.7977854    1.5440765 
C    -3.7504007   -0.2738940    0.6330111 
C    -3.2795776    0.5253109    1.7822965 
C    -2.6943723   -2.3648057   -0.2068380 
C    -3.2746435   -1.6513702    0.8419641 
C    -0.6844504   -2.9509275   -1.2309108 
C    -1.4249423   -3.0401789   -0.0030978 
C     1.3767043   -2.2290113   -2.3255358 
C     0.7337485   -2.9543653   -1.2515277 
C     2.6812941   -0.3426394   -2.7136524 
C     2.6516363   -1.6852659   -2.1311273 
C     2.6883988    1.7977854   -1.5440765 
C     3.2795776    0.5253109   -1.7822965 
C     1.4249423    3.0401789   -0.0030978 
C     2.6943723    2.3648057   -0.2068380 
C    -0.6844504    2.9509275    1.2309108 
C    -1.4537833    2.1341562    2.1723152 
C     0.7337485    2.9543653    1.2515277 
C    -0.7917307    1.2104015    3.0689710 
C    -2.6812941   -0.3426394    2.7136524 
C    -2.6516363   -1.6852659    2.1311273 
C    -1.4137086   -0.0728743    3.2893489 
C    -0.7337485   -2.9543653    1.2515277 
C    -1.3767043   -2.2290113    2.3255358 
C    -0.6133083   -1.2751653    3.1425408 
C     1.4249423   -3.0401789    0.0030978 
C     0.6844504   -2.9509275    1.2309108 
C     3.2746435   -1.6513702   -0.8419641 
C     3.7504007   -0.2738940   -0.6330111 
C     2.6943723   -2.3648057    0.2068380 
C     3.2746435    1.6513702    0.8419641 
C     3.7504007    0.2738940    0.6330111 
C     1.3767043    2.2290113    2.3255358 
C     0.6133083    1.2751653    3.1425408 
C     2.6516363    1.6852659    2.1311273 
C     0.7917307   -1.2104015    3.0689710 
C     1.4537833   -2.1341562    2.1723152 
C     2.6883988   -1.7977854    1.5440765 
C     3.2795776   -0.5253109    1.7822965 
C     1.4137086    0.0728743    3.2893489 
C     2.6812941    0.3426394    2.7136524 
