60 

C     1.5898005   -4.2915704   -0.6890320 
C     0.9164148   -4.4668745    0.5886167 
C    -0.4687696   -4.4987143    0.3389366 
C     0.5863697   -4.0162965   -1.7073083 
C    -0.6755966   -4.1876002   -1.1050596 
C     0.8801073   -2.7434882   -2.3003325 
C     2.4255278   -3.1668969   -0.5979795 
C     2.1032052   -2.2430309   -1.6685526 
C     1.4306681   -3.4667944    1.5055902 
C     2.4023849   -2.6590793    0.7637009 
C     0.5451650   -2.7757738    2.3407119 
C    -1.3764440   -3.6981502    1.0873037 
C    -0.8935296   -2.9348403    2.1822096 
C    -1.6754191   -3.1916906   -1.2052236 
C    -2.2452856   -3.0090807    0.1323797 
C    -0.1359110   -1.7882569   -2.5577071 
C    -1.4791883   -2.0228921   -2.0190268 
C     0.2987053   -0.4176615   -2.7999473 
C     2.3368597   -0.8805798   -1.5001546 
C     1.5757388    0.0701244   -2.2967115 
C     2.5465046   -1.2799569    0.9817183 
C     2.8152199   -0.4418863   -0.1857459 
C     0.7920472   -1.3864658    2.6854671 
C     1.8410680   -0.6403563    2.0911614 
C    -1.4959111   -1.6585492    2.5036431 
C    -0.4625446   -0.7214326    2.9134108 
C    -2.8514900   -1.8145738    0.4745469 
C    -2.5511437   -1.1640065    1.7374393 
C    -2.3204328   -0.8603949   -1.7504592 
C    -3.0213829   -0.7736646   -0.5012019 
C    -0.7108091    0.5469794   -3.0161353 
C    -2.0058051    0.3629762   -2.3783413 
C    -0.4172110    1.9283463   -2.9907378 
C     1.8063140    1.4908307   -2.1074702 
C     0.8054726    2.4392993   -2.5112536 
C     2.9516762    0.9141492    0.0279234 
C     2.6404816    1.8959505   -1.0068079 
C     1.8026912    0.7989885    2.2049371 
C     2.6574312    1.5187424    1.3149193 
C    -0.6107526    0.6828229    2.7990501 
C     0.6029597    1.4857162    2.6946310 
C    -2.7012601    0.2514173    1.5539879 
C    -3.1060815    0.4947066    0.1918142 
C    -1.8517492    1.1876955    2.2088039 
C    -2.4021994    1.6548930   -1.8305778 
C    -1.5014285    2.6320535   -2.3182440 
C    -2.8346854    1.7287800   -0.4587164 
C     0.5003130    3.6479505   -1.7129258 
C    -0.9578851    3.6733921   -1.5198935 
C     2.4618051    3.1461241   -0.3760162 
C     2.4815451    2.9095820    1.0784732 
C     1.3587544    4.0196188   -0.6635603 
C     0.4555654    2.8919403    2.4422306 
C     1.4529525    3.6188458    1.6747982 
C     0.7789807    4.3969532    0.6181788 
C    -1.8696336    2.5122717    1.6923824 
C    -2.3432664    2.8039812    0.3386082 
C    -1.4833381    3.8455058   -0.2116726 
C    -0.8032954    3.3862402    1.9903054 
C    -0.5902801    4.2636809    0.8289149 
