60 

C    -0.5972386   -4.7479816    0.3370581 
C     0.3885348   -4.7024791   -0.6470539 
C     1.5818158   -4.1412563   -0.1104792 
C    -0.0579676   -4.0972841    1.5460615 
C     1.2902349   -3.6756151    1.2589649 
C    -0.9570278   -3.0663431    1.8918144 
C    -1.6815409   -3.9297977   -0.1357222 
C    -2.0531006   -3.0403636    0.8900340 
C    -0.0593539   -3.8537227   -1.7900195 
C    -1.3623939   -3.3711208   -1.4711790 
C     2.0407083   -3.1868443   -1.0626371 
C     0.9548882   -2.9070374   -2.0413801 
C     2.7499507   -2.1161093   -0.6034008 
C     1.7609399   -2.3783958    1.6667544 
C     2.7391857   -1.7756538    0.8231975 
C    -0.5218043   -1.7988835    2.4231872 
C     0.8781515   -1.4269310    2.3708208 
C    -1.5075713   -0.7797303    2.4253201 
C    -2.6962466   -1.8370595    0.5658948 
C    -2.6739995   -0.8260947    1.5543261 
C    -1.7023426   -2.0269714   -1.7353267 
C    -2.6809138   -1.4044746   -0.8427112 
C     0.6519046   -1.5384504   -2.3842086 
C    -0.7348017   -1.1276319   -2.3807228 
C     2.7717173   -0.8804355   -1.3298924 
C     1.6790983   -0.5185210   -2.1801624 
C     3.0755610   -0.4078878    0.9239040 
C     3.2897662    0.0903472   -0.4274446 
C     1.2336833   -0.0152689    2.4955194 
C     2.4694319    0.4654065    1.8839726 
C    -1.1762962    0.5897928    2.6229500 
C     0.1799890    0.9826393    2.7203354 
C    -3.0506888    0.5105370    1.2660405 
C    -2.1870957    1.4182939    1.9722030 
C    -3.0552843   -0.1058020   -1.1185371 
C    -3.4544645    0.8358399   -0.0598144 
C    -1.0693391    0.2732965   -2.5568340 
C    -2.3856330    0.6693486   -2.1577755 
C     1.3589417    0.9063512   -2.3268346 
C    -0.0171559    1.3032953   -2.6211301 
C     3.1764137    1.4371772   -0.7105625 
C     2.2402257    1.8689419   -1.7411395 
C     2.6793559    1.8637168    1.6629192 
C     3.1506999    2.3332842    0.3786934 
C     0.4212680    2.3801228    2.4528522 
C     1.6973001    2.8209479    2.0828553 
C    -1.8800798    2.7115916    1.4561160 
C    -0.5892417    3.2226138    1.7630925 
C    -3.2643555    2.1314389   -0.5365084 
C    -2.6825113    2.0267147   -1.8908311 
C    -2.4940454    3.1078332    0.1886543 
C    -0.3797602    2.6752275   -2.3775527 
C    -1.7206808    3.0106305   -2.0237629 
C    -1.6826175    3.7923086   -0.7755696 
C     1.7852479    3.1834736   -1.3327376 
C     2.3472112    3.4742005   -0.0225582 
C     1.5247446    3.8443099    1.0429592 
C     0.1303788    4.0572455    0.8316199 
C     0.4774811    3.5566117   -1.5909637 
C    -0.3492773    4.1406084   -0.5126684 
