60 

C     4.5261730    0.4823880   -0.5258175 
C     4.5261730   -0.4823880    0.5258175 
C     3.8360741   -1.6168485    0.0843939 
C     3.7235775   -0.0747133   -1.6541805 
C     3.3255646   -1.3869087   -1.2924829 
C     2.7114488    0.8515971   -2.0156584 
C     3.8360741    1.6168485   -0.0843939 
C     2.8528104    1.9831802   -1.0820703 
C     3.7235775    0.0747133    1.6541805 
C     3.3255646    1.3869087    1.2924829 
C     2.8528104   -1.9831802    1.0820703 
C     2.7114488   -0.8515971    2.0156584 
C     1.7499799   -2.7144667    0.7209007 
C     2.0340494   -1.8474091   -1.6067951 
C     1.4758072   -2.8727604   -0.7209007 
C     1.3874023    0.4285344   -2.3431885 
C     1.0709965   -0.9775691   -2.2631672 
C     0.3111015    1.4162947   -2.2631672 
C     1.7499799    2.7144667   -0.7209007 
C     0.5828785    2.6852430   -1.6067951 
C     2.0340494    1.8474091    1.6067951 
C     1.4758072    2.8727604    0.7209007 
C     1.3874023   -0.4285344    2.3431885 
C     1.0709965    0.9775691    2.2631672 
C     0.5828785   -2.6852430    1.6067951 
C     0.3111015   -1.4162947    2.2631672 
C    -0.4616841   -3.5734778    1.2924829 
C     0.2910792   -3.4621964   -1.0820703 
C    -0.5178052   -4.1305619   -0.0843939 
C    -0.3225795   -1.4157929   -2.3431885 
C    -0.6182197   -2.7739821   -2.0156584 
C    -1.0648228    0.9872585   -2.3431885 
C    -1.3820980   -0.4387256   -2.2631672 
C    -2.0932291    1.9223850   -2.0156584 
C    -0.4616841    3.5734778   -1.2924829 
C    -1.7970852    3.2620694   -1.6541805 
C     0.2910792    3.4621964    1.0820703 
C    -0.5178052    4.1305619    0.0843939 
C    -0.3225795    1.4157929    2.3431885 
C    -0.6182197    2.7739821    2.0156584 
C    -1.0648228   -0.9872585    2.3431885 
C    -1.3820980    0.4387256    2.2631672 
C    -1.7970852   -3.2620694    1.6541805 
C    -2.0932291   -1.9223850    2.0156584 
C    -1.8453262   -4.1609748   -0.5258175 
C    -1.9264924   -3.1873561   -1.6541805 
C    -2.6808467   -3.6785868    0.5258175 
C    -2.6169279   -0.8378339   -1.6067951 
C    -3.1438897   -1.4790162    1.0820703 
C    -2.8638805   -2.1865691   -1.2924829 
C    -3.3182690   -2.5137134    0.0843939 
C    -3.1438897    1.4790162   -1.0820703 
C    -2.6169279    0.8378339    1.6067951 
C    -3.2257871    0.1582937   -0.7209007 
C    -3.2257871   -0.1582937    0.7209007 
C    -2.6808467    3.6785868   -0.5258175 
C    -1.8453262    4.1609748    0.5258175 
C    -1.9264924    3.1873561    1.6541805 
C    -3.3182690    2.5137134   -0.0843939 
C    -2.8638805    2.1865691    1.2924829 
