60 

C     1.1138146   -4.9760388    0.3327284 
C    -0.2509095   -5.2197308    0.3275268 
C    -0.7920770   -4.9438115   -0.9944443 
C     1.4618312   -4.3460592   -0.9854622 
C     0.3011831   -4.3059547   -1.7898283 
C     2.1277661   -3.1235143   -0.7139181 
C     1.3910472   -3.9839807    1.3497256 
C     2.1231216   -2.9489379    0.7550047 
C    -0.8846103   -4.3119812    1.3184535 
C     0.1349365   -3.5419399    1.9793181 
C    -1.7539997   -3.9507577   -0.8303923 
C    -1.8764713   -3.5858026    0.6179852 
C    -0.1576755   -3.0212638   -2.2664532 
C    -1.5026437   -2.8472818   -1.7554729 
C     1.8775114   -1.9418927   -1.4705992 
C     0.6597133   -1.8464054   -2.2431126 
C     2.4330781   -0.7298020   -0.9532542 
C     2.0967268   -1.6376843    1.2889754 
C     2.7091800   -0.6549052    0.4675168 
C    -0.0713877   -2.1489464    2.2494924 
C     1.0377637   -1.2064752    2.1649461 
C    -2.1360745   -2.2482131    0.9241631 
C    -1.3440914   -1.5384846    1.9201165 
C    -2.0123212   -1.5880302   -1.4882492 
C    -2.6315275   -1.4175515   -0.1750822 
C     0.0284496   -0.5251027   -2.3281252 
C    -1.3728165   -0.4009352   -2.0439679 
C     2.1647352    0.5127568   -1.6140983 
C     0.8458782    0.6752891   -2.2385027 
C     2.8606225    1.6601270   -1.1115862 
C     2.8952914    0.5989374    1.0654678 
C     3.2915305    1.6736878    0.2813705 
C     0.8495701    0.2246892    2.3675888 
C     1.9299404    1.0744900    2.0508884 
C    -1.5561152   -0.1156599    2.1020414 
C    -0.4848493    0.8174122    2.4133781 
C    -3.0349291   -0.1693792    0.1506367 
C    -2.7179233    0.4122477    1.4611594 
C    -1.9681629    0.8950965   -1.7963598 
C    -3.0202813    0.9187688   -0.8159299 
C     0.2333117    1.9954458   -2.2841525 
C    -1.2236443    2.1261506   -2.0584014 
C     2.3680161    2.9382611   -1.4040491 
C     1.0858445    3.1339415   -1.9864880 
C     2.8111614    2.8949050    0.8933831 
C     1.8167417    2.5097664    1.8773888 
C     2.4419879    3.7587698   -0.1490659 
C    -0.6478495    2.2684807    2.2147209 
C     0.5285794    3.1387878    1.9105657 
C    -2.9107706    1.7776424    1.3558862 
C    -3.2703227    2.0863779   -0.0701019 
C    -1.9458072    2.7318394    1.7723176 
C    -1.7338974    3.3533632   -1.4814191 
C    -2.6950897    3.2804786   -0.4141325 
C    -2.0430624    3.8287340    0.8169849 
C     0.5244010    4.2961385   -1.3241265 
C     1.2862361    4.5009689   -0.0494692 
C     0.3555738    4.2943278    1.0281507 
C    -0.8069870    4.3748837   -1.0525747 
C    -0.9392473    4.5237569    0.4309381 
