60 

C     0.5674486   -0.4243694   -5.9113651 
C    -0.5674486    0.4243694   -5.9113651 
C    -0.2081931    1.6396031   -5.2705107 
C     1.6162987    0.2179954   -5.0389554 
C     1.1689785    1.5104776   -4.7145550 
C     1.9484157   -0.6933164   -3.9538610 
C     0.2081931   -1.6396031   -5.2705107 
C     1.0458140   -1.8374971   -4.1418777 
C    -1.6162987   -0.2179954   -5.0389554 
C    -1.1689785   -1.5104776   -4.7145550 
C    -1.0458140    1.8374971   -4.1418777 
C    -1.9484157    0.6933164   -3.9538610 
C     1.1258748    1.8884197   -3.3262138 
C    -0.2607419    2.2421341   -3.0094454 
C     2.1410329   -0.2337573   -2.6224732 
C     1.8191707    1.1585438   -2.3148221 
C     1.8554076   -1.1393903   -1.4892972 
C     0.2607419   -2.2421341   -3.0094454 
C    -1.1258748   -1.8884197   -3.3262138 
C     0.7457698   -2.0537909   -1.7176515 
C    -2.1410329    0.2337573   -2.6224732 
C    -1.8191707   -1.1585438   -2.3148221 
C    -0.7457698    2.0537909   -1.7176515 
C    -1.8554076    1.1393903   -1.4892972 
C     1.5064336    1.4969935   -0.9504157 
C     0.2339687    2.0672388   -0.6707573 
C     2.0493480   -0.7091637   -0.1548893 
C     2.0493480    0.7091637    0.1548893 
C     1.5064336   -1.4969935    0.9504157 
C    -0.2339687   -2.0672388   -0.6707573 
C    -1.5064336   -1.4969935   -0.9504157 
C     0.2339687   -2.0672388    0.6707573 
C    -2.0493480    0.7091637   -0.1548893 
C    -2.0493480   -0.7091637    0.1548893 
C    -0.2339687    2.0672388    0.6707573 
C    -1.5064336    1.4969935    0.9504157 
C     1.8554076    1.1393903    1.4892972 
C     0.7457698    2.0537909    1.7176515 
C     1.8191707   -1.1585438    2.3148221 
C     2.1410329    0.2337573    2.6224732 
C     1.1258748   -1.8884197    3.3262138 
C    -0.7457698   -2.0537909    1.7176515 
C    -1.8554076   -1.1393903    1.4892972 
C    -0.2607419   -2.2421341    3.0094454 
C    -1.8191707    1.1585438    2.3148221 
C    -2.1410329   -0.2337573    2.6224732 
C     0.2607419    2.2421341    3.0094454 
C    -1.1258748    1.8884197    3.3262138 
C     1.9484157    0.6933164    3.9538610 
C     1.0458140    1.8374971    4.1418777 
C     1.1689785   -1.5104776    4.7145550 
C     1.6162987   -0.2179954    5.0389554 
C    -1.0458140   -1.8374971    4.1418777 
C    -1.9484157   -0.6933164    3.9538610 
C    -0.2081931   -1.6396031    5.2705107 
C    -1.1689785    1.5104776    4.7145550 
C     0.2081931    1.6396031    5.2705107 
C     0.5674486    0.4243694    5.9113651 
C    -1.6162987    0.2179954    5.0389554 
C    -0.5674486   -0.4243694    5.9113651 
