60 

C     0.8150693   -4.6375457   -0.8635888 
C     0.2810161   -4.7710323    0.4505645 
C    -1.0883074   -4.3264411    0.4601683 
C    -0.2013078   -4.0583670   -1.6976031 
C    -1.4219726   -3.9397851   -0.9035695 
C     0.3305154   -2.8596855   -2.2808757 
C     1.9315387   -3.7216579   -0.8068897 
C     1.6788484   -2.6686487   -1.7506890 
C     1.0395205   -3.9309532    1.3465867 
C     2.0974932   -3.3054613    0.5728134 
C    -1.2123490   -3.3317241    1.4830969 
C     0.1252746   -3.0706205    2.0358456 
C    -2.0984767   -2.2331479    1.3422457 
C    -2.1903679   -2.7984848   -1.0747929 
C    -2.7406492   -2.0943341    0.0704716 
C    -0.4748795   -1.6965529   -2.4937766 
C    -1.8214285   -1.7489034   -2.0238322 
C     0.1507775   -0.3905866   -2.5871124 
C     2.1717306   -1.3721958   -1.5270174 
C     1.5314822   -0.2376871   -2.1800780 
C     2.4724797   -1.9883241    0.8595846 
C     2.8518788   -1.1235143   -0.2611443 
C     0.5030138   -1.7518703    2.3958890 
C     1.8450755   -1.3149308    2.0030654 
C    -1.8538286   -1.0134375    2.1196013 
C    -0.5167626   -0.7361559    2.6315632 
C    -2.7020156    0.0932737    1.8504790 
C    -3.1455999   -0.7960332   -0.3747331 
C    -2.5029426   -0.5436169   -1.6600358 
C    -3.3043991    0.2302569    0.5213490 
C    -0.7007756    0.7997889   -2.6045295 
C    -2.0363097    0.7385269   -1.9912511 
C    -0.0830415    2.0555951   -2.7034404 
C     2.0788373    1.0932858   -1.9579736 
C     1.3304076    2.2196616   -2.4019241 
C     3.2373566    0.1854787    0.0344312 
C     2.9768544    1.2945599   -0.8629140 
C     2.2078290    0.0131989    2.2375651 
C     3.1358372    0.6662411    1.3742076 
C    -0.1083346    0.6586147    2.8465067 
C     1.2536386    1.0137459    2.6798827 
C    -2.3553707    1.4042286    2.2409192 
C    -1.0464617    1.7318566    2.6618776 
C    -3.1403379    1.5981530    0.0775374 
C    -2.5285564    1.8818093   -1.2022947 
C    -2.7369932    2.3478573    1.2097015 
C    -0.7596268    3.2485740   -2.2413627 
C    -1.8527712    3.1238107   -1.3131761 
C     1.4773189    3.5130772   -1.7701086 
C     0.2058629    4.1659089   -1.7509892 
C     2.8398181    2.4920328   -0.0467046 
C     2.8106929    2.0570680    1.3222278 
C     1.6454452    2.2946820    2.1123097 
C     2.0134428    3.5416742   -0.4451865 
C    -0.6717641    3.0116322    2.0464459 
C    -1.7531194    3.3721449    1.1340773 
C    -1.4650774    3.9038063   -0.1260088 
C    -0.1417375    4.4196268   -0.3726212 
C     0.6759102    3.2767623    1.6890727 
C     0.9405990    4.0147647    0.4661373 
