60 

C     1.9288363   -3.1882651   -1.4062834 
C     0.6454542   -3.5452402   -1.7615833 
C    -0.0531976   -4.0276835   -0.5616581 
C     2.0525375   -3.3709845    0.0600384 
C     0.7760585   -3.7500883    0.5802868 
C     2.7822350   -2.2924623    0.5683286 
C     2.4740803   -1.9142353   -1.7421325 
C     3.2384222   -1.5027532   -0.5888005 
C     1.6990328   -0.9408359   -2.4589958 
C    -0.2015868   -2.6093406   -2.4288673 
C     0.3291056   -1.3244187   -2.8187475 
C    -1.3794528   -3.5800690   -0.6338597 
C    -1.5126781   -2.7069570   -1.8107750 
C    -2.0129105   -3.2069529    0.5668784 
C     0.2288092   -3.0213724    1.7058261 
C    -1.1930556   -2.9125303    1.7494986 
C     2.3568911   -1.6065929    1.7674758 
C     1.0438396   -1.9460016    2.3216697 
C     2.8804788   -0.2850469    1.9427688 
C     3.5824282   -0.1792146   -0.4322666 
C     3.6084844    0.3499313    0.8934231 
C     2.0190191    0.4885403   -2.2554739 
C     3.0423758    0.8270054   -1.3258864 
C     1.0240218    1.5281899   -2.5666896 
C    -0.6346725   -0.2883414   -2.9627480 
C    -0.2815938    1.1182175   -2.9385140 
C    -2.3922661   -1.5876240   -1.7774660 
C    -1.9739030   -0.4200522   -2.4782366 
C    -3.0631855   -2.2583575    0.5051814 
C    -3.2282733   -1.4036172   -0.6199222 
C    -1.8435161   -1.7984192    2.4220639 
C    -3.0151602   -1.4247833    1.6876186 
C     0.3555436   -0.8963148    3.0031142 
C    -1.0731484   -0.7924585    2.9993875 
C     2.1012268    0.7762330    2.5642472 
C     0.8551378    0.4659215    3.0491985 
C     3.2406182    1.7406634    0.8263640 
C     2.9707185    2.0632297   -0.5411648 
C     2.2937147    2.0364888    1.8428027 
C     1.1170410    2.8380233   -1.9382880 
C     2.0108901    3.0148409   -0.7921506 
C    -0.0267004    3.6185309   -1.6990344 
C    -1.4634690    1.8658547   -2.5601050 
C    -2.4377226    0.9046601   -2.1082040 
C    -1.3424158    3.1065318   -1.9140969 
C    -3.4601719   -0.0548602   -0.1111698 
C    -3.2578803   -0.0808894    1.3289383 
C    -3.1227700    1.0977628   -0.8616269 
C    -1.4496428    0.6135845    2.8462835 
C    -0.2544855    1.3978989    2.8882632 
C    -2.5311717    0.9812253    1.9777320 
C     1.2097372    2.9339232    1.5788512 
C     1.2505897    3.6023691    0.2996492 
C     0.0485520    4.0812421   -0.2942703 
C    -0.1127671    2.6235135    2.1612223 
C    -2.1114044    3.3503566   -0.7107635 
C    -2.8349755    2.3117804   -0.1199306 
C    -2.4160431    2.2071974    1.2937468 
C    -1.1880655    3.8827151    0.2971779 
C    -1.2975944    3.0903313    1.4916747 
