60 

C    -3.5353954    0.6894015    1.5873165 
C    -3.5353954   -0.6894015    1.5873165 
C    -3.7978945   -1.1610474    0.2071901 
C    -3.7978945    1.1610474    0.2071901 
C    -3.8737946    0.0000000   -0.6359053 
C    -2.9314968    2.2249030   -0.0635024 
C    -2.4273111    1.4065923    2.1141210 
C    -2.2371174    2.5223591    1.1937882 
C    -1.2745033    0.7333709    2.6414075 
C    -2.4273111   -1.4065923    2.1141210 
C    -1.2745033   -0.7333709    2.6414075 
C    -2.9314968   -2.2249030   -0.0635024 
C    -2.2371174   -2.5223591    1.1937882 
C    -2.1717775   -2.2953994   -1.2984366 
C    -3.0931756    0.0000000   -1.8013406 
C    -2.3288990   -1.1809525   -2.1788590 
C    -2.1717775    2.2953994   -1.2984366 
C    -2.3288990    1.1809525   -2.1788590 
C    -0.9019855    3.0285142   -1.2984366 
C    -1.0658683    3.1985800    1.1937882 
C    -0.4610742    3.6512022   -0.0635024 
C     0.0021338    1.4704377    2.6414075 
C    -0.0044891    2.8054092    2.1141210 
C     1.2723695    0.7370668    2.6414075 
C     0.0021338   -1.4704377    2.6414075 
C     1.2723695   -0.7370668    2.6414075 
C    -1.0658683   -3.1985800    1.1937882 
C    -0.0044891   -2.8054092    2.1141210 
C    -0.9019855   -3.0285142   -1.2984366 
C    -0.4610742   -3.6512022   -0.0635024 
C     0.1417146   -2.6073619   -2.1788590 
C    -1.2210330   -0.7298657   -2.9844023 
C    -1.2210330    0.7298657   -2.9844023 
C    -0.0215658   -1.4223784   -2.9844023 
C     0.1417146    2.6073619   -2.1788590 
C    -0.0215658    1.4223784   -2.9844023 
C     1.5465878    2.6787686   -1.8013406 
C     0.8934507    3.8695968    0.2071901 
C     1.1706585    3.4064430    1.5873165 
C     1.9368973    3.3548045   -0.6359053 
C     2.4318002    1.3988170    2.1141210 
C     2.3647369    2.7170415    1.5873165 
C     2.9044438    2.7085495    0.2071901 
C     3.3029857    0.6762210    1.1937882 
C     3.3925709    1.4262992   -0.0635024 
C     2.4318002   -1.3988170    2.1141210 
C     3.3029857   -0.6762210    1.1937882 
C     1.1706585   -3.4064430    1.5873165 
C     0.8934507   -3.8695968    0.2071901 
C     2.3647369   -2.7170415    1.5873165 
C     1.5465878   -2.6787686   -1.8013406 
C     3.3925709   -1.4262992   -0.0635024 
C     1.9368973   -3.3548045   -0.6359053 
C     2.9044438   -2.7085495    0.2071901 
C     1.2425988   -0.6925127   -2.9844023 
C     1.2425988    0.6925127   -2.9844023 
C     2.1871844    1.4264094   -2.1788590 
C     3.0737630    0.7331148   -1.2984366 
C     2.1871844   -1.4264094   -2.1788590 
C     3.0737630   -0.7331148   -1.2984366 
