60 

C    -0.1487426    3.7586806    1.5594312 
C    -1.4823262    3.3828478    1.6273687 
C    -2.0417491    3.4810487    0.2773124 
C     0.1615225    4.1368016    0.1717187 
C    -0.9762452    3.8308327   -0.6380269 
C     1.4443323    3.6478454   -0.1357196 
C     0.8915634    2.9071289    2.0451635 
C     1.9325058    2.8840158    1.0406256 
C     0.5548883    1.7146438    2.7729630 
C    -1.8485212    2.1159176    2.1949320 
C    -0.8644189    1.3184244    2.8593247 
C    -2.8116969    2.3305264    0.0735423 
C    -2.7814109    1.4911339    1.2874499 
C    -2.7656710    1.6672775   -1.1727801 
C    -0.7761000    3.0255614   -1.8301587 
C    -1.7377842    1.9990851   -2.1153614 
C     1.6906466    3.1305445   -1.4212051 
C     0.5604482    2.7489490   -2.2426711 
C     2.6863494    2.1128110   -1.5683092 
C     2.7570140    1.7367024    0.8751031 
C     3.1585994    1.3804382   -0.4683368 
C     1.5309292    0.6790274    2.7607804 
C     2.6076466    0.6745053    1.8158461 
C     1.1911649   -0.7043151    3.0279907 
C    -1.1700756   -0.0712614    2.9472383 
C    -0.1428267   -1.0731456    3.1372321 
C    -2.9372866    0.0899132    1.2100729 
C    -2.2335290   -0.6738648    2.1920015 
C    -3.0645955    0.2590146   -1.2597353 
C    -3.2125281   -0.5451905   -0.0902288 
C    -1.3919212    0.7570674   -2.8034380 
C    -2.3253815   -0.2528816   -2.3882216 
C     0.9062620    1.4594686   -2.8827894 
C     2.2220756    1.1398058   -2.5338659 
C    -0.0514037    0.4046653   -3.0786389 
C     3.2387223   -0.0449771   -0.8526234 
C     2.5836613   -0.1847857   -2.1144590 
C     2.9114104   -0.7093452    1.4744016 
C     2.1056181   -1.5629335    2.2992452 
C     3.1687918   -1.0764129    0.1106645 
C     1.6840896   -2.8276675    1.8410937 
C    -0.6082979   -2.3375355    2.5805572 
C    -1.9152391   -2.0740438    1.9848629 
C     0.2782104   -3.2297859    1.9922524 
C    -2.9648277   -1.9542146   -0.2334440 
C    -2.3060737   -2.7316354    0.8276118 
C    -1.9787775   -1.5941674   -2.4616224 
C    -2.4878185   -2.4709246   -1.4575122 
C     0.3848880   -1.0091591   -2.9446759 
C     1.7335542   -1.2918905   -2.4003859 
C    -0.6118796   -1.9911603   -2.7535048 
C     2.6918358   -2.3553422   -0.3550462 
C     2.1065057   -3.2687878    0.5592823 
C     1.9445747   -2.4491120   -1.6046018 
C    -0.1294783   -3.9377489    0.7717213 
C    -1.4091151   -3.7068671    0.2121604 
C    -1.5053849   -3.5070913   -1.2007282 
C    -0.3564455   -3.2295878   -1.9956655 
C     0.9991221   -3.9471016   -0.0940898 
C     0.9106191   -3.4517476   -1.4321043 
