60 

C    -0.3080184   -4.6408078    0.4322749 
C    -1.0451080   -3.9480559    1.4899105 
C    -2.1901026   -3.4121121    0.9122203 
C    -0.9023479   -4.2753480   -0.8519538 
C    -2.1111326   -3.6291789   -0.5718576 
C     0.1060110   -3.6100474   -1.6694689 
C     0.9968144   -4.1556151    0.4440416 
C     1.3375063   -3.7012569   -0.8994640 
C    -0.1395170   -3.0339096    2.1564637 
C     1.1702625   -3.2073058    1.5473031 
C    -0.5421733   -1.7180051    2.4961674 
C    -2.5670839   -2.0631007    1.1351316 
C    -1.8519339   -1.2256823    2.0448664 
C    -2.4146367   -2.3985390   -1.1755489 
C    -2.9250003   -1.4959866   -0.1484873 
C    -0.1805530   -2.3725948   -2.3338841 
C    -1.5309191   -1.8285270   -2.1711000 
C     0.9102047   -1.4015072   -2.5789497 
C     2.2901171   -2.7287439   -1.0079845 
C     2.1793163   -1.6896538   -2.0121041 
C     2.0920838   -2.1404999    1.4325354 
C     2.8513600   -2.0897193    0.2016251 
C     0.5105517   -0.7316043    2.7201630 
C     1.8277577   -0.8915618    2.1359490 
C     0.0728092    0.5697082    3.0775773 
C    -2.1084695    0.1975522    1.9695466 
C    -1.2739349    1.0469318    2.7246171 
C    -2.9988621   -0.1149167   -0.3412666 
C    -2.8035799    0.7728336    0.8026433 
C    -1.7474820   -0.4726851   -2.4444521 
C    -2.6419047    0.3461157   -1.6419212 
C     0.6286720    0.0230995   -2.8591024 
C    -0.7259007    0.4148219   -2.9430774 
C     1.5785980    1.0861566   -2.4621977 
C     3.0607494   -0.6365583   -1.5992822 
C     3.4165455   -0.8890728   -0.2121094 
C     2.7412113    0.7100997   -1.7105205 
C     2.5649011    0.3297797    1.7591150 
C     3.2755925    0.3267737    0.5185332 
C     3.0543823    1.3813266   -0.4352396 
C     0.9382556    1.6788214    3.0170205 
C     2.0880074    1.6009479    2.1822222 
C    -1.1862166    2.4570888    2.4764294 
C     0.1820286    2.8557282    2.6680013 
C    -2.6946490    2.1523267    0.5406549 
C    -1.9115169    3.0356915    1.4077700 
C    -2.3581676    1.7199724   -1.8714727 
C    -1.1623283    1.7791002   -2.7128324 
C    -2.5457290    2.6427525   -0.8294865 
C     1.1290908    2.4078604   -2.2427069 
C    -0.2391082    2.7988166   -2.4970187 
C     2.4153497    2.5823820   -0.0719642 
C     2.0554718    2.7618764    1.2959192 
C     0.8778001    3.5608712    1.6476942 
C     1.5985324    3.2119762   -1.0914634 
C    -1.2945183    4.0461025    0.6169477 
C    -1.6922874    3.7953848   -0.7787583 
C    -0.5691474    3.8757917   -1.5982325 
C     0.1279669    4.2209696    0.6426159 
C     0.5843789    4.1129359   -0.7320523 
