60 

C     0.5206249    3.8667705    1.5958830 
C    -0.7079698    3.9446213    0.9471457 
C    -0.5012286    4.0592786   -0.5000898 
C     1.5323483    3.9161892    0.5309546 
C     0.8851733    3.8617689   -0.7638221 
C     2.5168124    2.9907855    0.8293149 
C     0.8274893    2.7147767    2.4311957 
C     2.1452378    2.3268516    2.0944092 
C    -0.1665118    1.6789431    2.6890667 
C    -1.7177384    2.9694483    1.1622808 
C    -1.5050231    1.9195283    2.1475129 
C    -1.5155050    3.2908568   -1.1371887 
C    -2.3240773    2.6379498   -0.1122178 
C    -1.1858989    2.5661723   -2.2617003 
C     1.2783087    2.8595048   -1.7360390 
C     0.2242380    2.4305486   -2.6157165 
C     2.9029947    1.9676071   -0.0847367 
C     2.3111679    1.8585468   -1.3893194 
C     2.4940049    0.9800485    1.9955870 
C     3.1189537    0.7638547    0.6985516 
C     0.2580931    0.2958936    2.8615211 
C     1.6421668   -0.0314127    2.5483733 
C    -0.7245937   -0.8099440    2.8324498 
C    -2.3905437    0.8516327    2.0563593 
C    -2.0764951   -0.4632999    2.5838026 
C    -2.9191215    1.3749817   -0.3300514 
C    -3.2032766    0.6479124    0.8594610 
C    -1.8441285    1.2706615   -2.5290990 
C    -2.6564345    0.6140327   -1.5671936 
C     0.3356688    1.1987888   -3.2822064 
C    -0.9614101    0.5093919   -3.3165488 
C     2.3011812    0.5124297   -1.9818100 
C     1.3343448    0.2485811   -3.0015400 
C     3.1751842   -0.5168976    0.1498542 
C     2.8257914   -0.6648595   -1.2608584 
C     2.0076454   -1.3365326    2.1813888 
C     2.9084899   -1.5809819    1.0836056 
C    -0.3088178   -2.2000204    2.5075546 
C     1.0722583   -2.4661380    2.2730405 
C    -1.2241254   -3.0833557    1.8062475 
C    -2.9662471   -1.3902316    1.9329327 
C    -3.5244509   -0.7068226    0.7799326 
C    -2.5360313   -2.6356603    1.5157668 
C    -2.6483637   -0.8604440   -1.5373129 
C    -3.2422765   -1.4987040   -0.4015940 
C    -2.7715269   -2.7585101    0.0626527 
C    -0.7631822   -0.8671074   -3.1342197 
C     0.6820338   -1.0571736   -3.1159682 
C    -1.6069762   -1.6181142   -2.2585371 
C     2.4014825   -1.9668570   -1.6662725 
C     1.2225578   -2.1354243   -2.4870536 
C     2.6043693   -2.8849258    0.6105391 
C     1.5039754   -3.4662426    1.3695417 
C     2.3680525   -3.0799622   -0.7509920 
C    -0.7705374   -3.8153559    0.6264370 
C    -1.6311670   -3.3771056   -0.4851540 
C    -1.0522131   -2.8532321   -1.6911678 
C     0.3482015   -3.1492594   -1.8835524 
C     0.5813468   -4.0353718    0.4200748 
C     1.1156748   -3.8184107   -0.9014761 
