60 

C    -0.2543059   -4.1400572    0.2199936 
C    -0.8987228   -3.9051375   -0.9902003 
C    -2.1796775   -3.2637180   -0.7094641 
C    -1.0905981   -3.5434263    1.2878834 
C    -2.2627798   -2.9753979    0.7014250 
C    -0.2566826   -2.7968455    2.1318899 
C     1.0984770   -3.7487598    0.4324573 
C     1.1355733   -3.0227496    1.6996200 
C     1.8352659   -3.2257673   -0.6543392 
C    -0.2401756   -3.1439888   -2.0278120 
C     1.1226327   -2.8579632   -1.8844032 
C    -2.3540976   -2.2243512   -1.6406782 
C    -1.1303938   -2.0838580   -2.4492245 
C    -3.0384720   -1.0822939   -1.2266012 
C    -2.7124338   -1.6963723    1.1526981 
C    -3.3255593   -0.8568806    0.1623463 
C    -0.6752288   -1.5169709    2.6422012 
C    -1.9859019   -1.0265266    2.2362409 
C     0.3819440   -0.5627582    3.0105885 
C     2.0761345   -2.0380032    1.9019421 
C     1.7266870   -0.8179332    2.6057969 
C     2.8400121   -2.2245011   -0.4210028 
C     3.0375434   -1.6981272    0.8665799 
C     1.6337367   -1.5942274   -2.3455288 
C     2.8159663   -1.2889169   -1.5396928 
C    -0.6648841   -0.7953003   -2.8082463 
C     0.7851554   -0.5493886   -2.8048552 
C    -2.7774602    0.1873920   -1.8631389 
C    -1.5886704    0.3440277   -2.6555367 
C    -3.4574000    0.5749978    0.3217569 
C    -3.2244647    1.2196210   -0.9638286 
C    -2.2690206    0.3687692    2.4463216 
C    -3.0157650    1.1780726    1.4856244 
C     0.0443718    0.8093273    3.1833538 
C    -1.3055830    1.2117242    3.0324015 
C     0.8633964    1.8799305    2.6700250 
C     2.5703471    0.2394568    2.1148411 
C     3.3909109   -0.3127106    1.0450710 
C     2.1145072    1.6105313    2.0757378 
C     3.2680991   -0.0008498   -1.3930256 
C     3.6609760    0.4875781   -0.0713004 
C     1.2994002    0.8310770   -2.7278889 
C     2.5760296    1.0824106   -2.0883856 
C    -1.0640630    1.6670812   -2.7372628 
C     0.3823456    1.9072033   -2.7350356 
C    -2.6360330    2.4855737   -1.0107673 
C    -1.6711146    2.7255013   -2.0177836 
C    -2.3866338    2.5127465    1.4328336 
C    -1.3496218    2.5281197    2.4210147 
C    -0.0321830    2.9135936    2.1218233 
C    -2.1703383    3.1422109    0.2126772 
C     0.6273312    3.1316192   -1.9665760 
C    -0.6175854    3.5638731   -1.4603665 
C     0.2626800    3.5491789    0.8568099 
C    -0.8488969    3.7262376   -0.0706842 
C     2.5248064    2.4429743    0.9709412 
C     3.3234190    1.8682243   -0.0371408 
C     2.7793029    2.2611201   -1.3342079 
C     1.5584425    3.3433144    0.3148358 
C     1.7492528    3.2002926   -1.1227537 
