60 

C     0.8848781    4.2591210    0.4347662 
C    -0.4198892    4.2400367    0.8347610 
C    -1.2616344    4.1184227   -0.3971154 
C     0.9206558    4.0897723   -1.0561653 
C    -0.3967615    3.7472724   -1.4967902 
C     1.9981869    3.2829342   -1.3282151 
C     1.8562514    3.3717003    1.0189410 
C     2.6923656    2.9676537   -0.0627068 
C     1.4149342    2.3627725    1.9766733 
C    -0.9072873    3.2645489    1.8003667 
C    -0.0129898    2.2242417    2.3097612 
C    -2.3492822    3.3601581   -0.0599317 
C    -2.1932073    2.9030610    1.3497806 
C    -2.7354367    2.2330788   -0.8276724 
C    -0.6210973    2.4849761   -2.1727313 
C    -1.8969343    1.8036824   -1.9205458 
C     1.8475885    2.0499475   -2.0429570 
C     0.5477295    1.6290353   -2.4788335 
C     3.1938333    1.6652415   -0.1696146 
C     2.7461590    1.0840263   -1.4416614 
C     2.1966091    1.1838218    2.0231948 
C     3.1417464    0.8543968    0.9644567 
C     1.6866986   -0.0661961    2.5050358 
C    -0.5702434    0.8989546    2.5772170 
C     0.3107619   -0.2730215    2.7471569 
C    -2.6788137    1.6021138    1.4299983 
C    -3.1955169    1.2334120    0.1122960 
C    -1.9592601    0.6198970    2.1923405 
C    -3.3445475   -0.1136695   -0.2309993 
C    -2.0149756    0.4333118   -2.2643469 
C    -2.8832748   -0.5028167   -1.5303975 
C     0.3980596    0.1969781   -2.7156186 
C    -0.9307234   -0.3223756   -2.7862719 
C     2.5815213   -0.2982144   -1.5765048 
C     1.4680812   -0.7496466   -2.4023468 
C     3.2041674   -0.5541703    0.8074417 
C     2.4869223   -1.1358437    1.9148467 
C     3.0889126   -1.1620259   -0.4929104 
C     2.0265277   -2.4353893    1.8482124 
C    -0.2018017   -1.6632333    2.6401386 
C     0.6632270   -2.7361410    2.2475880 
C    -2.3938480   -0.7032973    2.0009808 
C    -3.2241435   -1.0606687    0.8381202 
C    -1.5903111   -1.8467854    2.3428583 
C    -2.9612262   -2.4035224    0.5438359 
C    -2.0231244   -2.9324887    1.5270089 
C    -2.4382973   -1.8338022   -1.7695033 
C    -1.2265656   -1.7291469   -2.5727050 
C    -2.5085546   -2.8159596   -0.7472434 
C     1.1688047   -2.1483782   -2.3659943 
C    -0.2086664   -2.6350424   -2.4064825 
C     2.7630664   -2.5392333   -0.5060920 
C     2.3756369   -3.2129900    0.6986074 
C     1.8942899   -3.0414375   -1.5427743 
C     0.2112574   -3.8114199    1.3608106 
C    -1.1200695   -3.8069022    0.8925395 
C    -1.4118043   -3.7634620   -0.5604362 
C    -0.3315820   -3.7558582   -1.4511206 
C     1.2550314   -4.0814953    0.4127834 
C     0.9879661   -4.0299353   -0.9758303 
