60 

C    -0.5811583   -0.4590999   -4.0199163 
C    -0.1265142   -1.6761254   -3.6071957 
C     1.3194564   -1.5808895   -3.2779777 
C     0.5811583    0.4590999   -4.0199163 
C     1.7001489   -0.2087844   -3.3393291 
C     0.1265142    1.6761254   -3.6071957 
C    -1.7001489    0.2087844   -3.3393291 
C    -1.3194564    1.5808895   -3.2779777 
C    -2.3379697   -0.4104892   -2.2232920 
C    -0.7845370   -2.3983619   -2.5657024 
C    -1.9623420   -1.8175054   -1.9203674 
C     1.5231208   -2.3375962   -2.1348913 
C     0.2368077   -2.9860314   -1.7690388 
C     2.3830461   -1.8586548   -1.1019599 
C     2.3379697    0.4104892   -2.2232920 
C     2.7920781   -0.4528686   -1.1147553 
C     0.7845370    2.3983619   -2.5657024 
C     1.9623420    1.8175054   -1.9203674 
C    -1.5231208    2.3375962   -2.1348913 
C    -0.2368077    2.9860314   -1.7690388 
C    -2.7920781    0.4528686   -1.1147553 
C    -2.3830461    1.8586548   -1.1019599 
C    -3.1614829   -0.1552978    0.1627537 
C    -2.2660065   -2.3545980   -0.6690910 
C    -2.9648902   -1.5639966    0.3461926 
C    -0.0134499   -3.4263796   -0.4472257 
C    -1.3669798   -3.2743181    0.0212748 
C     2.2779135   -2.5726359    0.1355736 
C     1.0579004   -3.3583246    0.4761384 
C     2.7592441   -2.0050241    1.3135077 
C     3.1614829    0.1552978    0.1627537 
C     3.1041290   -0.6265366    1.3633537 
C     2.2660065    2.3545980   -0.6690910 
C     2.9648902    1.5639966    0.3461926 
C     0.0134499    3.4263796   -0.4472257 
C     1.3669798    3.2743181    0.0212748 
C    -2.2779135    2.5726359    0.1355736 
C    -1.0579004    3.3583246    0.4761384 
C    -3.1041290    0.6265366    1.3633537 
C    -2.7592441    2.0050241    1.3135077 
C    -2.4838023    0.0990208    2.5780280 
C    -2.6233781   -2.0950251    1.6089694 
C    -1.5964912   -3.1019319    1.4038980 
C    -2.1767432   -1.2427245    2.6602365 
C     0.7933788   -3.1348197    1.8769504 
C     1.8215877   -2.3014499    2.3895956 
C    -0.5296635   -2.8896486    2.3184044 
C    -0.8341258   -1.6782142    3.0820491 
C     2.4838023   -0.0990208    2.5780280 
C     1.5371771   -1.0981278    3.0655879 
C     0.1728626   -0.7203905    3.3882286 
C     2.6233781    2.0950251    1.6089694 
C     1.5964912    3.1019319    1.4038980 
C     2.1767432    1.2427245    2.6602365 
C    -0.7933788    3.1348197    1.8769504 
C    -1.8215877    2.3014499    2.3895956 
C    -1.5371771    1.0981278    3.0655879 
C    -0.1728626    0.7203905    3.3882286 
C     0.5296635    2.8896486    2.3184044 
C     0.8341258    1.6782142    3.0820491 
