60 

C    -0.2534189    4.5062888   -0.9678524 
C    -1.5610137    4.0193859   -0.5339659 
C    -1.5281605    3.8423748    0.8514172 
C     0.6626890    4.3805539    0.1585308 
C    -0.0925489    4.0195711    1.2777216 
C     1.7330699    3.4704508   -0.1881999 
C     0.1950685    3.5880147   -1.9257912 
C     1.4822822    3.0465634   -1.5516854 
C    -1.9375836    2.8666415   -1.3293108 
C    -0.8374438    2.6193750   -2.2455656 
C    -2.5920279    1.7452286   -0.7437976 
C    -2.0202171    2.6737726    1.4637622 
C    -2.6806400    1.6454253    0.7106721 
C     0.2452589    2.9362941    2.1376769 
C    -1.0017974    2.2392882    2.4096203 
C     2.2174129    2.4849970    0.7520326 
C     1.4373039    2.1607212    1.9626136 
C     2.9847218    1.4556005    0.1816577 
C     1.8702129    1.7729517   -2.0066120 
C     2.9036888    1.1704717   -1.2301168 
C    -0.5012392    1.3083684   -2.6489931 
C     0.9034360    0.8847390   -2.6499671 
C    -2.5957357    0.5245542   -1.5316112 
C    -1.5545147    0.3158839   -2.5323222 
C    -3.1815167   -0.6260623   -0.9236715 
C    -2.7646204    0.3184402    1.3178874 
C    -3.1399394   -0.7700882    0.5039521 
C    -0.9719002    0.9506890    2.8790263 
C    -1.9577680   -0.0049734    2.4574280 
C     1.4752249    0.7964393    2.5043613 
C     0.2807988    0.2748851    3.0904004 
C     3.2473472    0.1841875    0.8739127 
C     2.4470029   -0.1900534    2.0082640 
C     3.2353314   -0.1908754   -1.3974917 
C     3.5774323   -0.7737728   -0.1025077 
C     1.2010259   -0.5417104   -2.7022267 
C     2.3931130   -1.0714383   -2.0731640 
C    -1.2245313   -1.0187225   -2.8990966 
C     0.1375469   -1.4522065   -2.8690991 
C    -2.9615029   -1.9298095   -1.4636721 
C    -2.0132960   -2.1207243   -2.4467310 
C    -2.7461661   -2.1631073    0.8222964 
C    -2.7158918   -2.8919670   -0.3763761 
C    -1.4021349   -1.3180682    2.6718898 
C    -0.0271038   -1.1263481    3.1070350 
C    -1.7713152   -2.4296166    1.8582923 
C     2.2018857   -1.5898730    2.1772757 
C     0.9475942   -2.0692055    2.7733744 
C     3.0932539   -2.1016913   -0.0625585 
C     2.3644538   -2.3408478   -1.3026132 
C     2.5590009   -2.5635021    1.1514970 
C     0.1794550   -2.8161171   -2.2661293 
C    -1.1308513   -3.2276108   -2.0418870 
C    -1.5634187   -3.6853342   -0.7301627 
C     1.2294351   -3.1700101   -1.3303333 
C    -0.7695685   -3.4266624    1.5889851 
C     0.5470449   -3.2625638    2.1345969 
C     1.5222984   -3.5443493    1.0999998 
C    -0.6010790   -3.9510778    0.2430850 
C     0.8245555   -3.8337682   -0.0957529 
