60 

C    -0.9927857    3.7373734    1.1065162 
C    -2.2246432    3.2690074    0.6047804 
C    -2.1340714    3.2408578   -0.8612212 
C    -0.1434743    4.0625984   -0.0390595 
C    -0.8119882    3.6033323   -1.2356582 
C     1.1735912    3.6782787    0.2601984 
C    -0.2326726    3.0156662    2.0643405 
C     1.1617558    3.1330817    1.6361837 
C    -0.7175099    1.7661572    2.5821814 
C    -2.7125978    2.0301038    1.0361338 
C    -2.0370141    1.3302239    2.1008125 
C    -2.7201486    2.0266859   -1.3052503 
C    -3.1715352    1.2771779   -0.1578738 
C    -2.1088736    1.3075674   -2.3418035 
C    -0.0827542    2.7580073   -2.1766473 
C    -0.8028753    1.6923636   -2.8091264 
C     1.9451938    3.0151689   -0.7147187 
C     1.3113370    2.5429689   -1.9343701 
C     2.9262630    2.0391439   -0.3223240 
C     2.0680265    2.1813576    2.0043302 
C     3.0729063    1.7014398    1.0333986 
C     0.2470332    0.7383671    2.9857797 
C     1.6350398    1.0293378    2.7923330 
C    -0.1398988   -0.6798365    3.0662843 
C    -2.3683754   -0.0222292    2.2107048 
C    -1.5191193   -0.9802061    2.8635045 
C    -3.2210014   -0.1224061   -0.1652528 
C    -3.1048030   -0.7281007    1.1337399 
C    -2.2160532   -0.1381789   -2.3990928 
C    -2.7691701   -0.8948721   -1.3338134 
C    -0.1389303    0.4812220   -3.2571770 
C    -1.0786534   -0.6184983   -3.1466225 
C     1.9524513    1.2996553   -2.3033772 
C     2.9342297    0.9704491   -1.3067300 
C     1.2491592    0.2693077   -3.0054424 
C     3.1904643   -0.4046051   -0.9313658 
C     3.4072376    0.3759526    1.3967758 
C     2.5425956   -0.0158082    2.4956058 
C     3.4167540   -0.6864145    0.4630851 
C     0.8240364   -1.7473557    2.7128390 
C     2.1327835   -1.3540789    2.3121485 
C     2.7300616   -1.8239635    1.0820335 
C     0.3655512   -2.9630781    2.1051850 
C    -1.9421200   -2.2722156    2.4100028 
C    -2.8712437   -2.0847951    1.2622241 
C    -1.0418650   -3.2324764    2.0403910 
C    -2.3027466   -2.2929259   -1.1469161 
C    -2.4379134   -2.9008135    0.1660152 
C    -1.3851450   -3.7206804    0.6871366 
C    -0.6223832   -1.9184133   -2.9659302 
C    -1.2397279   -2.7705900   -1.9583996 
C     1.6935827   -1.0864345   -2.8178899 
C     2.6032818   -1.4262937   -1.7237328 
C     0.7839634   -2.1541894   -2.9622811 
C     2.0896122   -2.8116266    0.2928926 
C     0.9384915   -3.4420013    0.8685819 
C    -0.1774136   -3.8909134    0.0021361 
C    -0.1468163   -3.5745607   -1.3734933 
C     2.1551761   -2.6724807   -1.1401071 
C     1.0657453   -3.1418115   -1.9425977 
