60 

C    -1.5591099    4.0587909   -0.1220973 
C    -2.4803753    3.1877459    0.5389167 
C    -1.8230911    2.6544606    1.6925531 
C    -0.3509812    4.1335722    0.5970958 
C    -0.4630541    3.2285583    1.7275144 
C     0.7043994    3.8904942   -0.3601341 
C    -1.3095679    3.5281292   -1.4482632 
C     0.1016877    3.3724030   -1.5998983 
C    -3.0025902    2.2779644   -0.4416554 
C    -2.1928072    2.4213534   -1.6596146 
C    -3.3576110    1.0186772   -0.0068860 
C    -2.0311319    1.3105085    2.0768877 
C    -3.0171327    0.5818497    1.3234383 
C    -0.9202753    0.5380922    2.6783875 
C     0.6348095    2.4264900    2.1168665 
C     0.4419948    1.0510927    2.6129162 
C     1.8547357    3.3201317    0.0905140 
C     1.8922916    2.7438994    1.4565774 
C     2.6318820    2.4472460   -0.7601910 
C     0.6389876    2.2024916   -2.2181789 
C     1.9969800    1.7647132   -1.8468767 
C    -1.7313888    1.2609611   -2.3289604 
C    -0.3218323    1.2258066   -2.7401900 
C    -3.2200301   -0.1272077   -0.8751212 
C    -2.4248182   -0.0159752   -2.0364109 
C    -3.0264603   -0.8477148    1.3059480 
C    -3.1629050   -1.3204371   -0.0456001 
C    -1.1079780   -0.8441261    2.8587487 
C    -2.2388327   -1.5538506    2.2322592 
C    -0.0150768   -1.7880214    2.8825063 
C     1.5438133    0.0900998    2.5583940 
C     1.2864902   -1.3530897    2.5215138 
C     2.9469070    1.8529568    1.4953847 
C     3.4953845    1.7332223    0.1251363 
C     2.8123100    0.5282880    2.0327647 
C     3.8382756    0.4150393   -0.0737173 
C     3.5446668   -0.3377256    1.1674839 
C     2.4025440    0.3607585   -2.0826736 
C     3.3125718   -0.3100436   -1.1695282 
C     0.1938933   -0.0273499   -3.1445026 
C     1.5021023   -0.4719501   -2.7689506 
C    -1.8504598   -1.2455232   -2.5007893 
C    -0.6420147   -1.1944751   -3.1872619 
C    -2.5234246   -2.5365511   -0.4537523 
C    -1.8927116   -2.5080674   -1.7290862 
C    -1.8733623   -2.8759834    1.9560964 
C    -0.5198724   -3.0599817    2.4372294 
C    -1.9535135   -3.3820124    0.5870978 
C     0.1717677   -3.7931387    1.4651072 
C    -0.7298765   -4.0478459    0.3323170 
C     2.0449950   -2.2127982    1.5860656 
C     3.0516024   -1.5868492    0.7991372 
C     2.9836888   -1.6311379   -0.6625991 
C     1.4041129   -3.3264000    0.9680103 
C     1.4120591   -1.9292905   -2.4821616 
C     0.1361248   -2.3729544   -2.8334189 
C    -0.6392981   -3.2014236   -1.9616526 
C     0.0028014   -3.8387528   -0.8714768 
C     2.0551356   -2.4722109   -1.3057100 
C     1.3425687   -3.4129089   -0.5055091 
