60 

C    -1.2607943   -4.2088577   -0.9775476 
C    -0.0596375   -3.8682002   -1.6801495 
C     1.0534984   -3.8388478   -0.7936287 
C    -0.9438562   -4.2205933    0.4185570 
C     0.4803122   -4.1015521    0.5579253 
C    -1.7725832   -3.2475480    1.0876539 
C    -2.1813737   -3.1411299   -1.1979997 
C    -2.6027721   -2.6130213    0.0713991 
C    -0.3423240   -2.7211117   -2.5327818 
C    -1.6814812   -2.2296403   -2.1996370 
C     0.6497128   -1.7977931   -2.7497978 
C     2.0756613   -2.8365360   -0.9656532 
C     1.9159425   -1.8852311   -2.0402352 
C     2.7461307   -2.3554036    0.2168347 
C     1.0020636   -3.4101328    1.6546906 
C     2.2635377   -2.7483197    1.5221074 
C    -1.2301838   -2.4350059    2.1486441 
C     0.1464300   -2.5760296    2.4911793 
C    -1.8110517   -1.1575074    2.3337344 
C    -2.9845962   -1.2626182    0.1536856 
C    -2.8035925   -0.6328746    1.4283725 
C    -1.9597210   -0.8490426   -2.1245460 
C    -2.8405006   -0.4092887   -1.0394242 
C     0.3184083   -0.3955926   -2.9261394 
C    -0.9736248    0.1148067   -2.6435918 
C     2.4181269   -0.5537127   -1.9557093 
C     1.4730767    0.3688612   -2.5916896 
C     3.2180420   -1.0040762    0.3076357 
C     3.1303252   -0.1115452   -0.7996960 
C     2.2502359   -1.5885822    2.3412370 
C     0.9265469   -1.4026576    2.8466445 
C     2.8440842   -0.5119526    1.6307725 
C    -1.0489838   -0.0108188    2.8067054 
C     0.3580395   -0.0796558    2.9100660 
C    -2.8276976    0.7783416    1.5535437 
C    -1.7123123    1.1947241    2.3875987 
C    -2.9997554    0.9644017   -0.8846353 
C    -3.1703465    1.5598109    0.4443523 
C    -1.0950639    1.5433912   -2.3876235 
C    -2.2835042    1.9436118   -1.6945113 
C     1.4065498    1.7509799   -2.2930264 
C     0.0957994    2.4182719   -2.3320060 
C     3.0978775    1.2675748   -0.5318828 
C     2.4386201    2.2278644   -1.4076427 
C     2.4188909    0.8232463    1.8259085 
C     1.1368266    1.1025402    2.4885882 
C     2.8836821    1.7358465    0.8320818 
C    -1.0172481    2.4061805    2.1591026 
C     0.4618006    2.3651865    2.2254443 
C    -2.7133384    2.8810250    0.4084558 
C    -2.3126958    3.1817150   -0.9880764 
C    -1.6864888    3.3592472    1.2699851 
C    -0.0176097    3.6998582   -1.6674071 
C    -1.2318665    4.0299365   -0.9718916 
C    -0.8962278    4.2590361    0.4662782 
C     2.2007788    3.3975179   -0.6479747 
C     2.3590757    3.0282622    0.7795200 
C     1.1814960    3.3847098    1.4700624 
C     1.0428329    4.1297778   -0.7893408 
C     0.4668265    4.2881535    0.5754788 
