60 

C     0.7595396    4.3198584    0.2640144 
C    -0.4819485    4.1352428    0.8898252 
C    -1.4636457    3.8479149   -0.1567381 
C     0.6139154    4.0264521   -1.1869219 
C    -0.7561179    3.7119731   -1.4137267 
C     1.6335251    3.0954744   -1.5344765 
C     1.8798635    3.6419920    0.7534837 
C     2.5148426    3.0004050   -0.3922687 
C     1.7437378    2.6411699    1.7763209 
C    -0.6513131    3.1684783    1.9313345 
C     0.4628291    2.3428826    2.3619405 
C    -2.3558975    2.8595147    0.2955943 
C    -1.9186010    2.5164182    1.6499613 
C    -2.8170675    1.8132932   -0.5747256 
C    -1.0823069    2.6028726   -2.2097133 
C    -2.1886240    1.7599126   -1.8641945 
C     1.3214075    1.8720764   -2.2705683 
C    -0.0217554    1.7174165   -2.7034830 
C     2.0922698    0.6482583   -2.0429573 
C     2.9925077    1.7558496   -0.0088342 
C     2.5695217    1.5242373    1.3738889 
C     3.0021096    0.6529929   -0.9087979 
C     2.4053541    0.2113021    1.8752645 
C     0.2028807    0.9492634    2.7944591 
C     1.2232757   -0.0988760    2.6662088 
C    -2.1730427    1.2609718    2.1352742 
C    -1.1451136    0.5168236    2.8451973 
C    -3.2808904    0.5552989    0.0156523 
C    -2.9964187    0.3205281    1.4061173 
C    -3.3583113   -0.6137030   -0.8059033 
C    -1.9553832    0.4660278   -2.4858964 
C    -0.5852185    0.4095626   -2.9225097 
C    -2.6094228   -0.6619305   -2.0486016 
C     1.5816668   -0.6503395   -2.4901047 
C     0.1712482   -0.7852545   -2.8288482 
C     2.2640226   -1.8359925   -2.0547829 
C     3.3704793   -0.5618868   -0.2912781 
C     3.0537609   -0.8068699    1.1283132 
C     3.1947494   -1.7605480   -0.9745802 
C     2.7185394   -2.1996709    1.2768748 
C     2.9163227   -2.8332204    0.0004387 
C     0.8419282   -1.4728938    2.7258649 
C     1.5700217   -2.5277479    2.0266509 
C    -1.5177255   -0.8678840    2.7690298 
C    -2.6923155   -0.9936949    1.9195837 
C    -0.5417232   -1.8575321    2.7581918 
C    -3.2523086   -1.9161059   -0.2383993 
C    -2.8369564   -2.1285460    1.1133107 
C    -1.9407513   -1.9467210   -2.1516694 
C    -0.5663613   -2.0252084   -2.5046303 
C    -2.4589512   -2.7635215   -1.0864663 
C     1.5490886   -3.0686418   -1.8477676 
C     1.9522416   -3.6551415   -0.5416697 
C     0.1634762   -3.1417777   -1.9408900 
C     0.6091141   -3.4868256    1.5024390 
C    -0.7067218   -3.0624602    1.9458965 
C    -1.8237245   -3.1828443    1.1185860 
C    -1.6205784   -3.5821528   -0.2808446 
C     0.7652971   -3.9939190    0.1845173 
C    -0.3403404   -3.8625537   -0.7419863 
