60 

C     1.9547681   -3.9141427    0.4087070 
C     0.7016475   -4.1693126   -0.1391268 
C     0.6088109   -3.3472490   -1.3723475 
C     2.7142955   -3.0715297   -0.4792467 
C     1.8670810   -2.6929771   -1.5859105 
C     3.3255608   -2.0389643    0.2814896 
C     1.7659698   -3.1166382    1.6229558 
C     2.5911540   -1.9638338    1.5756098 
C    -0.2687669   -3.8306077    0.8782556 
C     0.3764993   -3.0050366    1.9022938 
C    -1.5075841   -3.4765653    0.4629774 
C    -0.5973569   -2.6958995   -1.7262482 
C    -1.7451805   -3.1491410   -0.9717614 
C    -0.6028987   -1.3178730   -2.2515098 
C     1.9207939   -1.3676952   -2.1142834 
C     0.6854363   -0.6330472   -2.4190481 
C     3.6438885   -0.8897788   -0.3837755 
C     3.0827796   -0.6239228   -1.7099554 
C     3.6824361    0.3593080    0.3449099 
C     2.0942458   -0.7099238    1.9971666 
C     2.8442395    0.4716281    1.5276256 
C    -0.2054933   -1.7447866    2.2656742 
C     0.6729856   -0.5867146    2.3867783 
C    -2.3012675   -2.5655435    1.2346360 
C    -1.6432532   -1.5519134    2.0285861 
C    -2.9218903   -2.4496368   -1.0270784 
C    -3.3930247   -2.2331022    0.3786549 
C    -1.8530073   -0.5469980   -2.2156590 
C    -3.0543856   -1.2025751   -1.7124625 
C    -1.7943405    0.9233418   -2.1554964 
C     0.7220906    0.8326306   -2.4658712 
C    -0.5026132    1.6088322   -2.2617051 
C     3.1043149    0.7637667   -1.8415383 
C     3.6427224    1.3853910   -0.6196000 
C     1.9743947    1.5113653   -2.2324132 
C     2.9903955    2.6092239   -0.3981609 
C     2.0407252    2.7837210   -1.5009709 
C     2.3228007    1.7349726    1.8058858 
C     2.5398644    2.8742985    0.9241704 
C     0.0744234    0.7326914    2.4685570 
C     0.9676361    1.8710221    2.3747807 
C    -2.2356947   -0.2155168    2.0486416 
C    -1.3598843    0.9427424    2.2489718 
C    -4.0094046   -1.0292147    0.4551708 
C    -4.0068895   -0.4532542   -0.9290839 
C    -3.5025787   -0.0153566    1.3596981 
C    -2.8590792    1.6199738   -1.4756223 
C    -3.8723867    0.8923611   -0.7860438 
C    -3.6989035    1.2020520    0.6577795 
C    -1.7826293    2.2608956    1.7430942 
C    -2.5164676    2.7063298   -0.5948754 
C    -2.8433774    2.2840916    0.7754077 
C    -0.3796105    2.9435656   -1.7456028 
C     0.8831062    3.5048794   -1.2968879 
C    -1.3776309    3.4315795   -0.8114324 
C     1.4320755    3.7428577    1.0907673 
C     0.4938117    3.1531570    2.0651738 
C    -0.8401649    3.3166227    1.5963167 
C     0.6755265    4.1588346   -0.0103146 
C    -0.7207153    3.9866150    0.3232964 
