60 

C     1.7901785   -3.9720164    0.5610450 
C     0.4640662   -4.0830372    1.0429429 
C    -0.4647572   -4.0258267   -0.0705555 
C     1.7201258   -3.6914784   -0.8518392 
C     0.3543749   -3.8656723   -1.2837895 
C     2.3951037   -2.4698064   -1.1015853 
C     2.4498666   -2.8806317    1.2175245 
C     2.9048903   -1.9854626    0.1978174 
C     0.3318661   -3.1501275    2.1367640 
C     1.5697401   -2.3509124    2.2172153 
C    -0.8595370   -2.4793961    2.2950911 
C    -1.6910277   -3.2910700    0.0622088 
C    -1.9352306   -2.6023227    1.3046622 
C    -2.2378434   -2.6574041   -1.1177594 
C    -0.1038211   -3.0348953   -2.3007001 
C    -1.4789139   -2.6362283   -2.3107293 
C     1.8580978   -1.5090688   -2.0293705 
C     0.6691711   -1.8602736   -2.7110552 
C     2.1903745   -0.0989509   -1.8696774 
C     2.9674129   -0.6177165    0.4445322 
C     2.9511943    0.3001861   -0.7032323 
C     1.5235806   -0.9558903    2.4685762 
C     2.4520681   -0.1196466    1.7271766 
C    -0.8923240   -1.1421952    2.8389594 
C     0.2708736   -0.3398622    2.9214139 
C    -2.7111400   -1.4102790    1.3756184 
C    -2.1447496   -0.5628866    2.4258157 
C    -2.9556758   -1.3856359   -1.0412011 
C    -3.2623102   -0.7780697    0.1968005 
C    -1.5925541   -1.3220969   -2.8948354 
C    -0.2839705   -0.8169789   -3.0730894 
C    -2.5284312   -0.5563404   -2.1528747 
C     1.3641333    0.9172690   -2.5159855 
C     0.0016901    0.5650810   -2.8884408 
C     1.6404470    2.2928467   -2.2384412 
C     3.1433061    1.6751788   -0.4123673 
C     2.6202858    2.6685195   -1.2720078 
C     2.3880324    1.2750169    1.9002851 
C     2.9796122    2.1440939    0.9555812 
C     0.1081001    1.1286165    2.8703160 
C     1.2080798    1.9227186    2.4659390 
C    -2.3216071    0.8059367    2.4164510 
C    -1.1888798    1.6894922    2.6770859 
C    -3.4249900    0.6485088    0.2071330 
C    -3.1407473    1.4008769    1.4056079 
C    -2.3468198    0.8486751   -2.0172892 
C    -1.1121435    1.4479950   -2.5394346 
C    -2.9873756    1.4572972   -0.9000725 
C     0.5437671    3.2057679   -2.1120829 
C    -0.7826239    2.7659046   -2.1080570 
C     2.0571758    3.7430625   -0.4295605 
C     2.2128792    3.3573937    0.9204606 
C     1.0446244    3.1803705    1.7629935 
C     0.7801017    4.0487351   -0.9186670 
C    -1.3696222    2.8600840    1.8539359 
C    -2.5778875    2.6590318    1.0809758 
C    -2.4984242    2.7282009   -0.3474956 
C    -1.4243955    3.3636356   -0.9273036 
C    -0.2597471    3.5695323    1.2918714 
C    -0.3776705    3.9821519   -0.1033006 
