60 

C     0.7406076   -4.0281977   -0.8804642 
C     1.9183968   -3.6807999   -0.2024701 
C     2.6032234   -2.6824511   -0.9971877 
C     0.6662010   -3.2057290   -2.0893428 
C     1.7799319   -2.3110045   -2.1190087 
C    -0.6377782   -2.6973022   -2.1802365 
C    -0.5283797   -3.9816611   -0.2286985 
C    -1.4484799   -3.2340400   -1.0762353 
C    -0.5576005   -3.7376410    1.1725772 
C     1.8468943   -3.1592248    1.1416547 
C     0.6495602   -3.2156799    1.8385542 
C     3.1045970   -1.6651751   -0.1508310 
C     2.6081543   -1.9082071    1.1841786 
C     3.2815068   -0.3498605   -0.6477045 
C     1.6125147   -0.9185295   -2.4402394 
C     2.5739265    0.0318023   -1.8737591 
C    -0.8430737   -1.3652897   -2.6655628 
C     0.2876856   -0.4520452   -2.8267458 
C    -2.1357660   -0.8271226   -2.3904630 
C    -2.4931224   -2.4382168   -0.5340243 
C    -2.9135354   -1.3011586   -1.2836669 
C    -1.6648507   -3.0273854    1.6984506 
C    -2.6151905   -2.3623575    0.9063958 
C     0.2363930   -2.0605260    2.6667713 
C    -1.1645621   -2.0519008    2.6707388 
C     2.2357539   -0.7985092    1.9999225 
C     0.9423306   -0.8098998    2.6905702 
C     3.4647409    0.6242176    0.3726107 
C     2.8166727    0.4370733    1.6444683 
C     3.3635850    2.0094909    0.0635375 
C     2.3377164    1.4200733   -2.0704662 
C     2.8642723    2.4031005   -1.1734099 
C     0.0121669    0.9925312   -2.8172285 
C     1.0309918    1.8855915   -2.4610662 
C    -2.3986228    0.5715102   -2.5438084 
C    -1.3362636    1.4823505   -2.6413070 
C    -3.4874018   -0.1115571   -0.6541763 
C    -3.2943019    0.9979523   -1.5075772 
C    -2.8658115   -1.0465502    1.5218419 
C    -1.9079866   -0.8623745    2.5932926 
C    -3.3339011    0.0661767    0.7784932 
C     0.1951412    0.4387025    2.8542843 
C    -1.2658771    0.3853358    2.8039071 
C     2.2013793    1.7055061    2.0236465 
C     2.6431969    2.7105951    1.1192501 
C     0.8569053    1.7150765    2.5312586 
C     1.8539217    3.4412676   -0.9399381 
C     0.7358008    3.1444750   -1.7167779 
C     1.7174450    3.6150664    0.5012024 
C    -1.6355272    2.6335285   -1.7762818 
C    -2.8204723    2.2624380   -1.0137326 
C    -0.5939232    3.4103687   -1.2193728 
C    -2.9994350    1.3587601    1.2751177 
C    -2.0027865    1.5100228    2.3187863 
C    -2.8406040    2.5220256    0.3636847 
C     0.0650002    2.8609393    2.1647992 
C     0.4439014    3.7294061    1.0425803 
C    -0.7165345    3.8240373    0.1653548 
C    -1.3437129    2.7376699    2.1098856 
C    -1.8450147    3.3633051    0.9039676 
