60 

C     2.3052199   -3.4461123   -0.6565195 
C     1.2981891   -3.5269987   -1.5973367 
C     0.0780429   -4.0391471   -0.9769502 
C     1.6937709   -3.8551783    0.6397550 
C     0.2870548   -4.0555088    0.4564042 
C     2.1290509   -2.9533812    1.5886924 
C     3.0275417   -2.2045497   -0.4542818 
C     3.0857318   -2.0299821    0.9599841 
C     2.7812777   -1.0521716   -1.2896186 
C     0.9534443   -2.3822942   -2.4049694 
C     1.7517124   -1.1892376   -2.3201109 
C    -1.0023965   -3.3328525   -1.5528245 
C    -0.4804601   -2.2923131   -2.4486178 
C    -2.0871844   -3.0238031   -0.7599054 
C    -0.6556338   -3.3671147    1.2954065 
C    -1.9421441   -3.1489959    0.6988084 
C     1.2213140   -2.1561103    2.3671062 
C    -0.1877757   -2.3218868    2.2471650 
C     2.9100756   -0.7694263    1.5209895 
C     1.7793294   -0.8282397    2.4496848 
C     3.0044431    0.2797863   -0.7220275 
C     3.1027677    0.3838250    0.7214548 
C     2.5464505    1.4833297   -1.4297185 
C     1.0942465   -0.0200522   -2.7604618 
C     1.5737901    1.3070991   -2.4457130 
C    -1.1574013   -1.0409109   -2.5658745 
C    -0.3247230    0.0485075   -2.9059030 
C    -2.9102612   -1.8469955   -1.0272863 
C    -2.4140194   -0.7801920   -1.8499790 
C    -2.8382593   -2.2449686    1.2695423 
C    -3.5771444   -1.5576739    0.1962876 
C    -1.0338278   -1.1521008    2.5629965 
C    -2.4183496   -1.2443504    2.2166226 
C     0.9882870    0.3199909    2.6686542 
C    -0.4553843    0.1976155    2.7183979 
C     2.7021553    1.5801357    1.3748406 
C     1.5952636    1.5567604    2.3214029 
C     2.5246099    2.7702075   -0.7433205 
C     2.6590737    2.7942927    0.6855866 
C     1.5505155    3.7655339   -1.0692898 
C     0.4681716    2.2291404   -2.6129576 
C    -0.7244534    1.4273561   -2.7047212 
C     0.4572937    3.4623632   -1.9298355 
C    -2.7335975    0.6097166   -1.4799079 
C    -1.8950636    1.7204710   -1.9535944 
C    -3.7968862   -0.2530012    0.5871747 
C    -3.1411140   -0.0587771    1.9012646 
C    -3.4398156    0.8310164   -0.2459758 
C    -1.2224104    1.4032608    2.3947808 
C    -2.5555346    1.2058845    1.9142060 
C    -2.9491349    1.8653563    0.6626447 
C     0.8447459    2.7832370    2.1389915 
C     1.6035883    3.6298839    1.2616417 
C     0.9841329    4.3009672    0.2015967 
C    -0.5782040    2.6837805    2.0322120 
C    -0.7624856    3.8389790   -1.2692528 
C    -1.8582818    2.9675716   -1.2050761 
C    -2.2483298    2.9267773    0.2047579 
C    -0.4106138    4.2779955    0.1051629 
C    -1.2004006    3.5234847    1.0178143 
