60 

C    -0.6731326   -4.6186022    0.4047677 
C     0.5764873   -4.3974409   -0.2892342 
C     1.5131149   -3.9348649    0.6543399 
C    -0.5534934   -3.9512866    1.7090105 
C     0.7782344   -3.6064499    1.9106527 
C    -1.5461576   -2.8920826    1.8226396 
C    -1.6450569   -3.8846735   -0.2910711 
C    -2.3473697   -3.0000426    0.6231033 
C     0.3307235   -3.5444117   -1.4570932 
C    -1.0900052   -3.2764089   -1.4958775 
C     1.2477719   -2.5226536   -1.8412689 
C     2.3605836   -2.8636988    0.3552242 
C     2.3987490   -2.2953693   -0.9597643 
C     1.1486251   -2.2861984    2.2896678 
C     2.2642571   -1.9118898    1.4580219 
C    -1.2241582   -1.5819699    2.3205304 
C     0.1741934   -1.2626914    2.5913666 
C    -2.1122380   -0.4742092    1.9565501 
C    -2.9493184   -1.8839262    0.1006175 
C    -3.0367594   -0.6905691    0.8930292 
C    -1.6087206   -2.0472881   -1.9813272 
C    -2.7413578   -1.4907048   -1.2855319 
C     0.7325200   -1.3732777   -2.6065981 
C    -0.7040816   -1.1168684   -2.6552736 
C     1.6049966   -0.2579279   -2.8158462 
C     3.0894017   -1.0628706   -1.0389405 
C     2.8264316   -0.1781397   -2.1012953 
C     2.6717060   -0.5716097    1.3410730 
C     3.3367181   -0.2288610    0.1326786 
C     0.6173495    0.1205083    2.6039604 
C     1.9517055    0.4333614    2.1070236 
C    -1.7455181    0.9007177    2.2663540 
C    -0.3766743    1.1978631    2.7031466 
C    -2.4916228    1.9508629    1.6159754 
C    -3.3637209    0.3737013   -0.0173565 
C    -3.0514366   -0.1053271   -1.3617709 
C    -3.1439128    1.6727085    0.3502702 
C    -1.1423612    0.2339660   -2.8389271 
C    -2.3217064    0.7421313   -2.2042706 
C     1.1275023    1.1141881   -2.9076034 
C    -0.2213549    1.3522936   -2.9041021 
C     3.0634088    1.2013033   -1.6812722 
C     3.3990534    1.1547809   -0.2968061 
C     2.0010348    2.0046642   -2.1294050 
C     2.2841121    1.7867371    1.8201053 
C     2.8898318    2.1404518    0.5271698 
C     0.0881025    2.5582693    2.6323875 
C     1.4189266    2.8157648    2.1903021 
C    -1.9386262    3.2563250    1.4830867 
C    -0.7253401    3.5948918    2.0262088 
C    -2.6603973    2.6464345   -0.6432047 
C    -2.1147066    2.1417042   -1.8442109 
C    -0.7845086    2.5206557   -2.2265823 
C    -1.9557702    3.6412603    0.0448294 
C     1.4633744    3.0661400   -1.3064919 
C     2.0965163    3.2290319   -0.0283270 
C     1.3602741    3.7806818    1.0755397 
C     0.0682436    4.2254575    0.9431495 
C     0.0255285    3.4021822   -1.4274748 
C    -0.6399720    4.0532753   -0.3158544 
