60 

C    -2.0389606   -3.7496467    0.8692433 
C    -0.6304214   -3.9577417    1.0431785 
C    -0.1216433   -3.0249260    1.9970631 
C    -2.4263552   -2.6382381    1.6435607 
C    -1.2441063   -2.1375608    2.3261752 
C    -3.0905689   -1.6917289    0.7798185 
C    -2.2082601   -3.3690557   -0.5191386 
C    -2.9261010   -2.1456221   -0.5893586 
C     0.0018062   -4.0436151   -0.2458420 
C    -0.9669165   -3.4847537   -1.2146877 
C     1.3309590   -3.6800427   -0.3301831 
C     1.1856226   -2.4935049    1.8562273 
C     1.9885995   -2.9985894    0.7782427 
C     1.4396514   -1.1363020    2.3616096 
C    -1.0460277   -0.7526131    2.5395457 
C     0.3179688   -0.2517859    2.7092457 
C    -3.0834164   -0.3185541    1.0984224 
C    -2.1305642    0.1641294    2.1164422 
C    -3.4553480    0.5430391    0.0423095 
C    -2.6373532   -1.1756105   -1.5919872 
C    -3.2123597    0.0949418   -1.3332956 
C    -0.5456888   -2.4481113   -2.1314339 
C    -1.3917853   -1.2638977   -2.3482436 
C     1.7890352   -3.0510049   -1.5438754 
C     0.8642302   -2.3310416   -2.3472706 
C     3.0251473   -2.1614614    0.1970489 
C     2.8788929   -2.1857402   -1.2338950 
C     2.6788445   -0.5350017    2.0060466 
C     3.4012022   -0.9848115    0.8102037 
C     2.8487186    0.8643715    2.0791629 
C     0.5198003    1.1927352    2.7615050 
C     1.7976244    1.7462791    2.4181309 
C    -1.9159772    1.5383862    2.1832606 
C    -0.6053466    2.0646356    2.5696767 
C    -3.2220895    1.9662497    0.1193119 
C    -2.5305121    2.4741506    1.2420407 
C    -2.7602215    1.2235944   -2.0303682 
C    -2.8501026    2.4183404   -1.1780129 
C    -0.7778410   -0.0157642   -2.7999498 
C    -1.5163832    1.2048735   -2.6886924 
C     1.4773401   -1.0307185   -2.6321932 
C     2.7462008   -0.9521238   -1.9424548 
C     0.6851315    0.1077153   -2.8407870 
C     3.6818097    0.2029348    0.0141518 
C     3.4780071    1.3212784    0.8618659 
C     3.1924924    0.2624908   -1.3459513 
C     1.8958791    2.9007644    1.5245629 
C     2.8280971    2.5257338    0.4621728 
C    -0.4465453    3.3117067    1.9271638 
C    -1.5851160    3.5122928    1.0329372 
C     0.7538908    3.6308613    1.2274067 
C    -1.7021200    3.2092035   -1.3874690 
C    -0.8689596    2.4922275   -2.3565479 
C    -1.0834432    3.8317978   -0.2616585 
C     0.3745738    3.8891672   -0.1672775 
C     1.3005512    1.3737188   -2.5133278 
C     2.5023563    1.4547847   -1.7413437 
C     2.3853786    2.6242747   -0.8667912 
C     0.5000256    2.5520675   -2.2405836 
C     1.1506974    3.3108219   -1.1751132 
