60 

C    -0.4772300    4.4442967    0.2960627 
C    -1.7693601    4.0799867   -0.0575785 
C    -1.7343598    3.4397780   -1.3982938 
C     0.3635511    4.2502213   -0.8983940 
C    -0.3687850    3.4108667   -1.8238049 
C     1.6177108    3.8623628   -0.4775119 
C     0.2015504    3.7804651    1.4045757 
C     1.5500259    3.6348930    0.9836776 
C    -0.4300204    2.6475499    2.0799482 
C    -2.4988412    3.2321652    0.7813266 
C    -1.8337731    2.4814913    1.8278237 
C    -2.5466831    2.2719066   -1.3551789 
C    -3.1797953    2.2515281   -0.0597069 
C    -2.0789167    1.0429619   -1.9323864 
C     0.2033124    2.1671601   -2.2781398 
C    -0.7199719    1.0339713   -2.4790953 
C     2.2799140    2.7446493   -1.0398930 
C     1.6088183    1.8738442   -1.9690338 
C     2.3248433    2.5110949    1.2880861 
C     3.0116651    2.1230777    0.0558140 
C     0.3733142    1.4357004    2.4093015 
C     1.7980758    1.4567997    2.1230226 
C    -0.2670015    0.1208257    2.5681928 
C    -2.3895975    1.1601797    1.8104493 
C    -3.2287204    1.0406134    0.6173200 
C    -1.6843657    0.0225160    2.2744244 
C    -2.6496866   -0.2062093   -1.4439820 
C    -3.2377268   -0.1673352   -0.1085759 
C    -2.1337463   -1.4878247   -1.8984505 
C    -0.1640479   -0.2321837   -2.7439021 
C    -0.8848492   -1.4633808   -2.5760037 
C     2.1151680    0.4973371   -2.0619255 
C     1.2501942   -0.5059544   -2.5705359 
C     3.5269505    0.8595270   -0.0668578 
C     3.1621440    0.0339581   -1.2029563 
C     2.5213500    0.2296456    2.0786807 
C     3.5341050    0.0264806    1.0876395 
C     0.4978492   -1.1420040    2.5335962 
C     1.8901233   -1.0489090    2.3265957 
C    -0.1447254   -2.4576538    2.2332638 
C    -2.2597986   -1.2237164    1.9075534 
C    -3.1131630   -1.3006630    0.7216258 
C    -1.5660099   -2.4833117    2.0134077 
C    -2.4526891   -2.7027398   -1.1649916 
C    -2.9666142   -2.5717917    0.1674660 
C    -2.1645591   -3.3966216    1.0754193 
C    -1.5342067   -3.8038713   -1.1269281 
C    -1.3752691   -4.2318619    0.2848137 
C     0.0959345   -2.5260251   -2.4018240 
C     1.3998604   -1.9089748   -2.2876662 
C    -0.2212934   -3.6958321   -1.6788836 
C     3.2077648   -1.3525066   -0.7616040 
C     3.4649817   -1.3402138    0.6496884 
C     2.5841942   -2.0476689    1.5164021 
C     2.3379414   -2.3510163   -1.2994190 
C     0.6101243   -3.4866513    1.5544100 
C    -0.0064910   -4.3375804    0.5642147 
C     0.7287021   -4.1409206   -0.6800766 
C     1.9115902   -3.1450318    1.0232185 
C     1.9105387   -3.4094005   -0.4144207 
