60 

C    -0.2872769    4.4902654   -0.8832251 
C    -1.4618122    3.7991985   -1.3213956 
C    -2.2706752    3.5402457   -0.1909589 
C    -0.2387233    4.3513089    0.5831742 
C    -1.4561581    3.8065069    1.0196972 
C     0.9522988    3.6526969    0.9476131 
C     0.8241663    3.7660659   -1.3695987 
C     1.7002027    3.4217325   -0.2874672 
C    -1.0582356    2.6426210   -2.1431307 
C     0.3865637    2.6524687   -2.1961005 
C    -1.7390657    1.4116204   -2.0667253 
C    -2.8943356    2.2991439   -0.0442532 
C    -2.8383392    1.3201825   -1.0959182 
C    -1.5237931    2.6244222    1.8270591 
C    -2.5915896    1.8075245    1.2987111 
C     0.9207872    2.5648347    1.8955886 
C    -0.3474338    1.9502978    2.2939341 
C     2.0670905    1.7526918    1.8965813 
C     2.5880454    2.3479228   -0.4277556 
C     3.0415049    1.8030918    0.8172264 
C     1.1336675    1.4553813   -2.2533648 
C     2.4269950    1.4242733   -1.5585432 
C    -1.0234681    0.1744728   -2.4137954 
C     0.4230006    0.2100349   -2.5287991 
C    -1.7032423   -1.1113616   -2.2141309 
C    -3.3059908    0.0642616   -0.7289788 
C    -2.9266973   -1.1428007   -1.4304678 
C    -2.7417939    0.4639902    1.6296667 
C    -3.4960193   -0.2933757    0.6690664 
C    -0.4068557    0.4998865    2.5511216 
C    -1.6719973   -0.2035582    2.3746067 
C     2.0562017    0.3837838    2.3798050 
C     0.8148678   -0.2951478    2.5770199 
C     3.7746699    0.6068654    0.8401401 
C     3.1951125   -0.2872595    1.8529286 
C     3.1225266    0.1975437   -1.4947507 
C     3.9205567   -0.1345234   -0.3351389 
C     1.1784966   -1.0412554   -2.4769044 
C     2.5126119   -1.0219932   -1.9713679 
C    -0.9644400   -2.3221963   -2.2624087 
C     0.4708731   -2.2862640   -2.4079828 
C    -1.2936005   -3.4547958   -1.3771429 
C    -3.2494859   -2.2467983   -0.5969305 
C    -3.5284332   -1.6935991    0.7361063 
C    -2.3479805   -3.3427158   -0.4452406 
C    -1.6762360   -1.6268659    2.3682752 
C    -2.6812377   -2.3539023    1.6378301 
C    -2.0475171   -3.4802489    0.9638513 
C     0.8032606   -1.7447037    2.2994710 
C    -0.4450173   -2.3865131    2.2618138 
C    -0.6964003   -3.5478977    1.3967996 
C     3.0992327   -1.5939868    1.3082790 
C     3.6683883   -1.5297637   -0.0200832 
C     2.9611096   -2.1099082   -1.0900105 
C     1.9212126   -2.3757234    1.5536900 
C     1.0122667   -3.3944911   -1.6660338 
C    -0.0652247   -3.9945355   -0.9287142 
C     0.2920057   -3.9346065    0.4747317 
C     2.1030370   -3.1693637   -0.8029298 
C     1.6083233   -3.3651810    0.5754596 
