60 

C    -0.2841485    4.6328665   -0.4742400 
C    -1.4804615    3.9985022   -0.9115185 
C    -2.1908432    3.5892569    0.2454408 
C    -0.1161780    4.3107349    0.9627526 
C    -1.3026073    3.7440375    1.4306329 
C     1.1047889    3.5831292    1.1499356 
C     0.7939901    4.0056844   -1.1356039 
C     1.7582878    3.5565972   -0.1668534 
C    -1.1203472    2.9502355   -1.9006079 
C     0.3013902    3.0145404   -2.0861035 
C    -1.7833903    1.6952049   -1.9198060 
C    -2.7781239    2.3317265    0.2950799 
C    -2.7941611    1.4900577   -0.8841004 
C    -1.3010871    2.4952933    2.1097835 
C    -2.3708948    1.6926076    1.5427186 
C     1.1536705    2.3838445    1.9312053 
C    -0.1017191    1.7940469    2.4237068 
C     2.2917544    1.4911375    1.7098608 
C     2.5760220    2.5082533   -0.5192576 
C     3.0516215    1.5952214    0.4930179 
C     1.0516904    1.8387380   -2.3525322 
C     2.3415097    1.7454408   -1.7276584 
C    -1.0930028    0.4989552   -2.4340535 
C     0.3379994    0.5964452   -2.6618284 
C    -1.7169533   -0.8249691   -2.2919803 
C    -3.2372625    0.2068295   -0.6517730 
C    -2.9200585   -0.8934955   -1.5162108 
C    -2.4799066    0.3109284    1.7132139 
C    -3.3033747   -0.3246632    0.7235957 
C    -0.2006046    0.3353724    2.6589819 
C    -1.4153766   -0.4408561    2.3495681 
C     2.2672814    0.2152852    2.3288355 
C     1.0005292   -0.3763767    2.7738215 
C     3.0578343   -0.8461916    1.8269002 
C     3.5199143    0.4148296   -0.1798737 
C     2.9744510    0.4797230   -1.5301555 
C     3.5636653   -0.8099838    0.4931382 
C     1.0980683   -0.6129628   -2.6640179 
C     2.4241610   -0.6639051   -2.0984513 
C    -0.9179339   -2.0645495   -2.3796332 
C     0.4920454   -1.9103023   -2.5120502 
C    -1.3554354   -3.2766057   -1.7022590 
C    -3.2597739   -2.0798326   -0.7820068 
C    -3.3453571   -1.6959833    0.6513435 
C    -2.5306255   -3.2295170   -0.8661666 
C    -1.3758534   -1.8930373    2.1612706 
C    -2.4383434   -2.5178539    1.3912409 
C    -2.1485424   -3.6363136    0.5229981 
C     1.0637216   -1.8116383    2.5704585 
C     2.3406684   -2.0867428    2.0060496 
C    -0.0767057   -2.5800634    2.1928420 
C     3.1409030   -2.0388198   -0.1747450 
C     2.5872008   -1.9593381   -1.4594104 
C     1.4388775   -2.7639264   -1.8129712 
C     2.4624711   -2.8752994    0.8294041 
C    -0.4072435   -4.0486863   -0.9664661 
C    -0.8738479   -4.1374797    0.4364583 
C     0.1783581   -3.6828593    1.2904009 
C     0.9616237   -3.7459607   -0.9317376 
C     1.3856640   -3.6773124    0.4794161 
