60 

C    -0.5776490   -4.4118415   -1.4475572 
C     0.6676622   -3.8549599   -1.9261672 
C     1.5827886   -3.8726928   -0.8671721 
C    -0.4801802   -4.4933268    0.0194671 
C     0.8617369   -4.2852341    0.3706391 
C    -1.4976583   -3.6635035    0.6284286 
C    -1.5673602   -3.4579482   -1.7162414 
C    -2.2631484   -3.1176010   -0.4902276 
C     0.3960633   -2.5584939   -2.5667401 
C    -1.0219006   -2.3508377   -2.5024632 
C     1.2599940   -1.4433479   -2.3955443 
C     2.3594268   -2.7338760   -0.5637395 
C     2.3543111   -1.5773108   -1.4358906 
C     1.2012696   -3.3685055    1.3837992 
C     2.2695841   -2.5049247    0.8566837 
C    -1.2001595   -2.8078051    1.7377176 
C     0.1947530   -2.7396434    2.1867000 
C    -2.0427856   -1.5945170    1.9336711 
C    -2.8309217   -1.8669034   -0.4093948 
C    -2.8637799   -1.1598706    0.8467842 
C    -1.5657551   -1.0455133   -2.3810064 
C    -2.6402583   -0.8801782   -1.4538954 
C     0.7139951   -0.1037574   -2.6428158 
C    -0.7139951    0.1037574   -2.6428158 
C     1.5657551    1.0455133   -2.3810064 
C     2.8850298   -0.4003513   -0.8746486 
C     2.6402583    0.8801782   -1.4538954 
C     2.5734345   -1.2408863    1.4281254 
C     3.0557371   -0.2334347    0.5533000 
C     0.6258261   -1.5766943    2.9116728 
C     1.8414704   -0.8335757    2.5683703 
C    -1.5992871   -0.5662068    2.8229770 
C    -0.2982907   -0.6563312    3.4251681 
C    -1.8414704    0.8335757    2.5683703 
C    -3.0557371    0.2334347    0.5533000 
C    -2.8850298    0.4003513   -0.8746486 
C    -2.5734345    1.2408863    1.4281254 
C    -1.2599940    1.4433479   -2.3955443 
C    -2.3543111    1.5773108   -1.4358906 
C     1.0219006    2.3508377   -2.5024632 
C    -0.3960633    2.5584939   -2.5667401 
C     1.5673602    3.4579482   -1.7162414 
C     2.8309217    1.8669034   -0.4093948 
C     2.8637799    1.1598706    0.8467842 
C     2.2631484    3.1176010   -0.4902276 
C     1.5992871    0.5662068    2.8229770 
C     0.2982907    0.6563312    3.4251681 
C    -0.6258261    1.5766943    2.9116728 
C     2.0427856    1.5945170    1.9336711 
C     1.4976583    3.6635035    0.6284286 
C    -0.1947530    2.7396434    2.1867000 
C     1.2001595    2.8078051    1.7377176 
C    -2.2695841    2.5049247    0.8566837 
C    -2.3594268    2.7338760   -0.5637395 
C    -1.2012696    3.3685055    1.3837992 
C    -0.6676622    3.8549599   -1.9261672 
C     0.5776490    4.4118415   -1.4475572 
C     0.4801802    4.4933268    0.0194671 
C    -1.5827886    3.8726928   -0.8671721 
C    -0.8617369    4.2852341    0.3706391 
