60 

C     1.0369489   -4.2091917    1.2138222 
C    -0.4038322   -4.0884923    1.2247924 
C    -0.8867829   -4.1481425   -0.1029271 
C     1.4441925   -4.0350644   -0.1693752 
C     0.2998048   -4.0840476   -0.9943507 
C     2.3143178   -2.8891880   -0.2846575 
C     1.5544513   -3.0941008    1.9143795 
C     2.4508561   -2.3494244    1.0505540 
C    -0.7703878   -2.9256296    2.0062761 
C     0.4703819   -2.3250496    2.4671728 
C    -1.8242340   -2.0673950    1.6187933 
C    -1.8343999   -3.2155303   -0.5648377 
C    -2.4535657   -2.2589378    0.3147394 
C     0.0673421   -3.0728002   -1.9522576 
C    -1.3450377   -2.6997379   -1.8465537 
C     2.1974149   -1.9497083   -1.3533530 
C     1.0308771   -2.0381255   -2.2273188 
C     2.8789975   -0.6736463   -1.1730471 
C     2.7006006   -0.9841357    1.2756134 
C     3.2610972   -0.2254699    0.1660118 
C     0.6054149   -0.9195341    2.6412827 
C     1.8880036   -0.3097516    2.2761917 
C    -1.8317681   -0.7206308    2.2024709 
C    -0.5900212   -0.1215417    2.6898654 
C    -2.8928127    0.1290207    1.8204762 
C    -3.1492878   -1.1327745   -0.2905585 
C    -3.5804985   -0.0736136    0.5596209 
C    -1.8058445   -1.5021425   -2.3284203 
C    -2.8510126   -0.7862772   -1.6454297 
C     0.5254627   -0.8064817   -2.8193091 
C    -0.8816529   -0.5498087   -2.8997849 
C     2.6069771    0.3497574   -2.1294069 
C     1.3463212    0.3361710   -2.8234521 
C     2.9261394    1.7236719   -1.8664630 
C     3.5363531    1.1638023    0.4056511 
C     3.4318529    2.1398884   -0.6584646 
C     2.0006187    1.0890107    2.3424396 
C     2.9406564    1.7696761    1.5423643 
C    -0.4588021    1.3468060    2.6798962 
C     0.8164456    1.9220290    2.4830171 
C    -2.8358381    1.5638556    2.0675813 
C    -1.5513688    2.1664645    2.3109080 
C    -3.8141753    1.2484748    0.0316737 
C    -3.4846153    2.2420253    1.0281333 
C    -2.6888655    0.6045965   -2.0021958 
C    -1.4311509    0.7585479   -2.6905268 
C    -3.1498320    1.6190777   -1.1703457 
C     0.7794315    1.6907426   -2.7620601 
C     1.7466099    2.5426337   -2.2011196 
C    -0.5933238    1.8987265   -2.4677569 
C     2.5785358    3.2755961   -0.2035087 
C     2.3195839    3.0467762    1.1304652 
C     0.9921702    3.0913537    1.6435457 
C     1.4585804    3.4233700   -1.1273048 
C    -1.3715722    3.2310652    1.3361168 
C    -2.5151101    3.1615802    0.4661776 
C    -2.2682480    2.7910437   -0.8788554 
C    -0.9552045    2.8908302   -1.4465912 
C    -0.0941865    3.5281679    0.8157414 
C     0.1069917    3.5116126   -0.6455413 
