60 

C     0.2265044   -4.9608257    0.2683906 
C    -0.6869079   -4.3540164    1.1862778 
C    -1.8158941   -3.8910022    0.4717234 
C    -0.2669996   -4.6636508   -1.0994106 
C    -1.5404496   -4.0603624   -0.9906465 
C     0.7472131   -3.9708132   -1.8038714 
C     1.4650290   -4.2793624    0.4219396 
C     1.8548141   -3.7471686   -0.8352534 
C     0.0115581   -3.3643556    1.9997705 
C     1.3731005   -3.3207431    1.5233876 
C    -0.6385879   -2.1515078    2.4009840 
C    -2.3530503   -2.6066082    0.6927113 
C    -1.8927304   -1.7415776    1.7631070 
C    -1.8084400   -2.8063828   -1.5888881 
C    -2.5299087   -1.9987605   -0.6019579 
C     0.4911065   -2.7072312   -2.3930076 
C    -0.8124614   -2.0939462   -2.3563199 
C     2.3285546   -2.4235630   -0.9636155 
C     1.5969980   -1.8161122   -2.0540382 
C     2.0729759   -2.0776603    1.4679611 
C     2.6272544   -1.5995654    0.1836195 
C     0.2269261   -1.1075730    2.7971287 
C     1.5905483   -1.0742674    2.3328672 
C    -0.2111982    0.2463444    2.9220965 
C    -2.2473656   -0.3596263    1.6933254 
C    -1.4757318    0.6355347    2.4576729 
C    -2.6883918   -0.6344587   -0.7405034 
C    -2.9089615    0.1401886    0.4809871 
C    -0.9077496   -0.6501791   -2.4525970 
C    -2.0642369    0.0153522   -1.8870186 
C     1.5162125   -0.4402312   -2.1751331 
C     0.2766019    0.1748711   -2.6094068 
C     2.8148763   -0.2123808   -0.0453575 
C     2.4561838    0.3372390   -1.3682553 
C     1.9814753    0.2987619    2.2046084 
C     0.9422670    1.1323327    2.7072652 
C     2.7513242    0.7382299    1.0765919 
C     0.8157340    2.4917319    2.3182131 
C    -1.6510117    2.0452357    2.2026904 
C    -0.5172304    2.9908037    2.1607594 
C    -3.1280230    1.5122220    0.3174994 
C    -2.6297977    2.4697461    1.2987036 
C    -2.1671270    1.4169328   -1.9547238 
C    -2.9096410    2.1096726   -0.9637104 
C     0.2050923    1.6246201   -2.6121776 
C    -1.0540099    2.2560854   -2.3849311 
C     2.4849626    1.7051777   -1.5749676 
C     1.3856265    2.3766410   -2.2815366 
C     2.7878288    2.1176221    0.8372655 
C     1.8709711    3.0401473    1.5092685 
C     2.9476216    2.5990159   -0.5252503 
C     1.2819938    3.6781543   -1.7033654 
C     1.5728783    4.0834043    0.5672345 
C     2.2895097    3.8213361   -0.6581082 
C    -0.8125724    3.9698502    1.1456333 
C    -2.1136084    3.6377264    0.6055677 
C    -2.2549054    3.3988653   -0.7630684 
C    -1.1395054    3.5163160   -1.6710740 
C     0.2062438    4.3838503    0.2552281 
C     0.0265112    4.1499201   -1.2122851 
