60 

C    -0.5759211    3.5626568    1.7113916 
C    -1.8261978    3.3557314    1.1424210 
C    -1.7484422    3.6310352   -0.2921312 
C     0.3186331    4.0244617    0.6582993 
C    -0.3758919    3.9114448   -0.6029570 
C     1.5608054    3.3953734    0.8378051 
C     0.0713575    2.4849880    2.4238312 
C     1.4423442    2.4331832    1.9546864 
C    -0.6320349    1.2991737    2.7741126 
C    -2.5331049    2.1403696    1.3682845 
C    -2.0289663    1.1844302    2.3060264 
C    -2.4534741    2.5944098   -0.9319685 
C    -3.0310296    1.6891462    0.0942912 
C    -1.9200898    1.9928316   -2.0786877 
C     0.2575322    3.1786303   -1.6919841 
C    -0.5539968    2.2679779   -2.4517594 
C     2.3212322    3.0210552   -0.2928219 
C     1.6282854    2.8187590   -1.5675270 
C     3.2332672    1.9699751   -0.1350053 
C     2.1939605    1.2350493    1.9934141 
C     3.1977030    1.0835802    0.9694891 
C     0.1586450    0.0773744    2.9836081 
C     1.5754606    0.0417464    2.5875746 
C    -0.5356222   -1.1636217    3.0771955 
C    -2.5923421   -0.1041767    2.1680478 
C    -1.9249378   -1.2301098    2.7348314 
C    -3.2796865    0.3169944   -0.1737598 
C    -3.2321155   -0.5460566    0.9602578 
C    -2.2203623    0.6075773   -2.3904276 
C    -2.9460727   -0.2319711   -1.4937151 
C    -0.0175503    1.0484109   -3.0420959 
C    -1.0860834    0.0947625   -3.1120715 
C     2.1573282    1.5908868   -2.1639526 
C     3.1897057    1.1266922   -1.3293998 
C     1.3123758    0.6171929   -2.7971973 
C     3.5265938   -0.2457184    0.4697886 
C     3.3817992   -0.2343962   -0.9838659 
C     2.1530944   -1.2188347    2.2791092 
C     3.1193626   -1.3459784    1.1854031 
C     0.0378355   -2.4156862    2.6422597 
C     1.3787464   -2.4537090    2.2846985 
C    -2.1846023   -2.4090487    1.9797220 
C    -2.9491735   -1.9873070    0.8337381 
C    -0.9558470   -3.1231694    1.8350525 
C    -2.7052723   -1.6498425   -1.5935660 
C    -2.6500253   -2.5135605   -0.4051235 
C    -0.8017714   -1.2743394   -3.1157784 
C    -1.7306012   -2.1381351   -2.4787784 
C     1.5977675   -0.8294819   -2.6003883 
C     2.6421562   -1.2529827   -1.6500901 
C     0.5403713   -1.7436056   -2.8428675 
C     2.8060523   -2.5419375    0.4606030 
C     1.7763736   -3.2576491    1.1679158 
C     2.4815048   -2.4892543   -0.9193022 
C    -0.5891934   -3.6754791    0.5572693 
C    -1.5057497   -3.4372300   -0.5440253 
C    -0.9890080   -3.2231249   -1.8338266 
C     0.3999192   -3.0032189   -2.0809426 
C     0.8123018   -3.7378768    0.2370593 
C     1.3026515   -3.3183982   -1.0821707 
