60 

C     1.1036541    4.4526714    0.6560029 
C     0.8537744    4.3980843   -0.7920151 
C    -0.5457822    4.4796138   -0.9741999 
C    -0.1615596    4.2235842    1.3191844 
C    -1.1935066    4.3294918    0.3757956 
C    -0.0339595    3.0116403    2.1194379 
C     1.9748397    3.4140155    0.9996412 
C     1.3504092    2.5575542    1.9905598 
C     1.5718583    3.2738014   -1.3235806 
C     2.3931679    2.7539966   -0.2254160 
C     0.9200116    2.2876321   -2.1617105 
C    -1.1790947    3.5798380   -1.8295239 
C    -0.4667139    2.4948403   -2.4527346 
C    -2.1696090    3.2994922    0.2716211 
C    -2.3178804    2.9819094   -1.1317196 
C    -1.0322138    2.0229881    2.1213246 
C    -2.1676162    2.1820321    1.1839558 
C    -0.6328098    0.6615630    2.5261178 
C     1.7035820    1.2046336    2.0443782 
C     0.7454423    0.2196194    2.4960580 
C     2.8049903    1.4413131   -0.1812082 
C     2.7502841    0.7594660    1.1223873 
C     1.4156687    0.9125013   -2.1651626 
C     2.5782770    0.5924301   -1.3513150 
C     0.5617268   -0.2047362   -2.5204608 
C    -1.3397853    1.3408250   -2.4304330 
C    -2.4693779    1.6643615   -1.5603939 
C    -0.8819591    0.0261721   -2.5072363 
C    -2.8248144    0.9836606    0.7546986 
C    -2.9311754    0.6714969   -0.6652663 
C    -1.6151995   -0.3348520    2.4905094 
C    -2.7915288   -0.1327550    1.6397565 
C    -1.3186030   -1.7421180    2.5073157 
C     1.0718814   -1.2069345    2.4108373 
C     0.0117489   -2.2195648    2.3335311 
C     3.1364898   -0.5561079    1.1822274 
C     2.3620236   -1.5482205    1.9135418 
C     3.0627963   -0.7151750   -1.2835710 
C     3.6304490   -1.1981692   -0.0325395 
C     1.0440038   -1.5805673   -2.3950432 
C     2.3648959   -1.8246043   -1.8792303 
C     0.0842253   -2.6237757   -2.2542530 
C    -1.8149755   -1.0296111   -2.0909393 
C    -2.8584553   -0.6964265   -1.1118782 
C    -1.3395400   -2.3571781   -2.1496273 
C    -3.2593704   -1.3704660    1.2224624 
C    -2.4294331   -2.4040517    1.8653502 
C    -3.3100301   -1.6990940   -0.1819630 
C    -1.9151405   -3.3574882   -1.2847683 
C    -2.2407956   -3.4607172    0.9998587 
C    -2.8423566   -3.0365943   -0.3088266 
C     0.2038144   -3.4239197    1.4962609 
C     0.3786744   -3.7374964   -1.3500862 
C    -0.9261140   -3.9664230    0.7699419 
C    -0.8014726   -4.0686165   -0.6651094 
C     2.5734482   -2.7912919    1.2258732 
C     3.4391538   -2.5758449    0.0573281 
C     2.6763591   -3.0033787   -1.0818925 
C     1.4715613   -3.5961983    0.8600366 
C     1.5716610   -3.7588514   -0.6138904 
