60 

C    -1.0649637   -4.5218447    1.0294537 
C    -0.0792037   -4.7819074    0.0543144 
C     1.1750147   -4.2405663    0.4707790 
C    -0.4242573   -3.6965097    2.0483436 
C     0.9687962   -3.5126651    1.7225786 
C    -1.1823737   -2.5006347    2.2017356 
C    -2.0263357   -3.6627238    0.3882553 
C    -2.2342575   -2.4920730    1.1832577 
C    -0.4333582   -4.1335488   -1.2173968 
C    -1.6795189   -3.4572683   -1.0180230 
C     1.7276739   -3.5286815   -0.6403312 
C     0.6882995   -3.3842445   -1.6856100 
C     2.5116877   -2.4330103   -0.3833695 
C     1.5902057   -2.2327482    1.9146359 
C     2.5724806   -1.8406133    0.9482808 
C    -0.5909355   -1.2620875    2.5365797 
C     0.8473172   -1.1177389    2.5001160 
C    -1.4376801   -0.0938759    2.3714490 
C    -2.6540847   -1.2861918    0.5945806 
C    -2.4689978   -0.0629166    1.3650550 
C    -1.8937926   -2.1909507   -1.5980535 
C    -2.6997988   -1.2152465   -0.8536389 
C     0.5098342   -2.1267055   -2.3242015 
C    -0.8525558   -1.6391391   -2.4741737 
C     2.6127802   -1.3456106   -1.3305182 
C     1.5941759   -1.1176649   -2.2837804 
C     3.0180083   -0.4979947    0.8004570 
C     3.1967116   -0.2417130   -0.6254173 
C     1.4105442    0.2298826    2.4900940 
C     2.5726373    0.5505954    1.6556265 
C    -0.8794207    1.1306642    2.8281109 
C     0.5695215    1.3013865    2.8621936 
C    -1.4820116    2.3545074    2.5074547 
C    -2.8497880    1.2206742    0.7846546 
C    -2.4103969    2.4383730    1.4259388 
C    -2.8898685    0.0502605   -1.4251709 
C    -3.0428474    1.2623791   -0.6228849 
C    -1.0385516   -0.3260466   -2.9601537 
C    -2.2162642    0.3933224   -2.6267980 
C     1.3493715    0.2827001   -2.6819440 
C     0.0397788    0.6395791   -3.0829708 
C     3.1210969    1.0461779   -1.1156704 
C     2.1678759    1.3377623   -2.1616378 
C     2.7591904    1.8947862    1.1843097 
C     3.1235983    2.1192226   -0.1784177 
C     0.8400029    2.6871422    2.4887207 
C    -0.4258673    3.3559791    2.3398948 
C     1.8617821    2.9723617    1.5768933 
C    -1.9760960    3.5601163    0.6360470 
C    -0.7220368    4.0827317    1.1876512 
C    -2.4844219    2.3587344   -1.3996447 
C    -1.8954502    1.7925457   -2.5634767 
C    -0.5059896    1.9614013   -2.8135194 
C    -1.8191392    3.4258938   -0.7558078 
C     1.6371531    2.6672385   -1.8706409 
C     2.2872264    3.1612319   -0.6968831 
C     1.5551434    3.7621262    0.3745409 
C     0.2354658    4.1797594    0.1223767 
C     0.2488141    2.9632769   -2.0879416 
C    -0.4319246    3.7601094   -1.1163026 
