60 

C    -0.8763457   -4.4192699   -0.6461196 
C     0.3045906   -4.1168375   -1.3476275 
C     1.3589238   -3.8523987   -0.3788631 
C    -0.6479249   -4.2132030    0.7653508 
C     0.7490685   -3.9920225    0.9564343 
C    -1.6004718   -3.2573937    1.2339528 
C    -1.9581392   -3.5678075   -1.0827113 
C    -2.5002973   -2.9682397    0.1043578 
C    -0.0603429   -3.0922600   -2.3081847 
C    -1.4848966   -2.7176166   -2.1203472 
C     0.8233370   -2.0700995   -2.5360081 
C     2.3002615   -2.8059127   -0.6155983 
C     2.0822832   -1.9789171   -1.7856563 
C     2.8855870   -2.1427567    0.5358134 
C     1.1311941   -3.1012352    1.9654182 
C     2.3402748   -2.3902843    1.8395587 
C    -1.2019134   -2.1714386    2.1129909 
C     0.1424547   -2.1684636    2.5584675 
C    -1.8948600   -0.8827800    2.0614289 
C    -3.0074953   -1.7017887   -0.0037545 
C    -2.9215223   -0.7490164    1.0888464 
C    -1.8982708   -1.3375560   -2.1917072 
C    -2.8697678   -0.9346200   -1.2318451 
C     0.3777138   -0.7182376   -2.8436871 
C    -0.9638868   -0.2948393   -2.6383537 
C     2.4761950   -0.6254482   -1.8212515 
C     1.4581614    0.1520002   -2.5458384 
C     3.2630147   -0.7565491    0.4860809 
C     3.1361704   -0.0089117   -0.7081967 
C     2.1965345   -1.1122494    2.4979306 
C     0.8318063   -0.9294642    2.8727784 
C     2.8122826   -0.1183909    1.7332510 
C    -1.2125382    0.3599903    2.5050011 
C     0.2145433    0.3506794    2.7630174 
C    -1.7993748    1.6049845    2.1914385 
C    -3.2413425    0.5196016    0.5402718 
C    -3.0590192    0.4359309   -0.9007545 
C    -2.8862598    1.6742155    1.2249559 
C    -1.1953612    1.1276287   -2.3580983 
C    -2.3767992    1.4923178   -1.5709474 
C     1.2818854    1.5333640   -2.3696432 
C    -0.0780947    2.0730229   -2.4041167 
C     3.0139000    1.3929181   -0.5998559 
C     2.2969731    2.1803765   -1.5574378 
C     2.3304702    1.2165416    1.7773652 
C     1.0334497    1.5132049    2.3721151 
C     2.7966094    2.0421525    0.7097602 
C    -1.0376670    2.8388128    2.0739466 
C     0.3953936    2.7970684    2.0645604 
C    -2.7564330    2.8601030    0.4948692 
C    -2.4488280    2.7770630   -0.9252365 
C    -1.7556853    3.6863886    1.1368563 
C    -0.2696710    3.4110069   -1.8722551 
C    -1.4496882    3.7416094   -1.1786741 
C    -1.0628706    4.3720050    0.1314245 
C     2.0218024    3.4416106   -0.9563844 
C     2.2508229    3.3049914    0.4984138 
C     1.0778950    3.7402067    1.1740280 
C     0.8197746    4.0753052   -1.1475273 
C     0.3123938    4.4809078    0.1759969 
