60 

C     0.2393943   -4.6745438    0.0235103 
C    -0.5965056   -4.4320941    1.1077589 
C    -1.8058872   -3.7783049    0.6521484 
C    -0.3660993   -4.1154670   -1.1775999 
C    -1.6162562   -3.5068015   -0.7820093 
C     0.5910082   -3.2541278   -1.7535422 
C     1.5083808   -4.0014459    0.2549911 
C     1.7998132   -3.2390247   -0.8899421 
C     0.1035411   -3.5913696    2.0795652 
C     1.4364072   -3.2983390    1.5206353 
C    -1.9539016   -2.6382272    1.4721046 
C    -0.7444017   -2.4990182    2.3197759 
C    -2.5867179   -1.4798205    1.0090986 
C    -2.0028961   -2.2367072   -1.2899677 
C    -2.8421402   -1.4142369   -0.4254367 
C     0.1969638   -2.0286884   -2.3976325 
C    -1.1466262   -1.5084161   -2.2199256 
C     1.2298770   -1.1104482   -2.6488624 
C     2.5668366   -2.0540969   -0.7891596 
C     2.4884050   -1.1965517   -1.9204300 
C     1.9562185   -1.9942541    1.6172618 
C     2.7574222   -1.4331165    0.5145838 
C    -0.2338048   -1.1883867    2.5766083 
C     1.2010850   -1.0234016    2.4262885 
C    -2.3741439   -0.2330407    1.7245861 
C    -1.1086457   -0.0472904    2.4539407 
C    -3.0558816    0.8966115    1.2425713 
C    -3.3204457   -0.2180564   -0.9401230 
C    -3.7221000    0.8190291   -0.0405208 
C    -1.4075710   -0.0916845   -2.5076317 
C    -2.6352617    0.4370603   -2.0494087 
C     0.9740828    0.3041268   -2.9357526 
C    -0.3181504    0.8533470   -2.7690905 
C     2.9927583    0.1092964   -1.8459529 
C     2.1235696    1.0341694   -2.5752590 
C     3.1882287   -0.0499534    0.5832074 
C     3.3813098    0.7082102   -0.6376453 
C     1.7010129    0.2629534    2.5479465 
C     2.8151976    0.7222568    1.7303462 
C    -0.5624765    1.2951157    2.5990601 
C     0.8418363    1.3908550    2.8139027 
C    -2.5073496    2.2455864    1.3724264 
C    -1.2573534    2.4628375    1.9971040 
C    -3.5865286    2.0757979   -0.6922318 
C    -2.8024158    1.8554180   -1.8816369 
C    -2.8377964    2.9449321    0.1514038 
C    -0.3946375    2.2556530   -2.2951909 
C    -1.6661200    2.7232253   -1.8617322 
C    -1.7653841    3.5113930   -0.6217012 
C     2.0633021    2.2455386   -1.8685086 
C     2.9946169    2.1258825   -0.7344055 
C     0.8052303    2.9205882   -1.7496028 
C     2.7448934    2.1353693    1.6792733 
C     1.5760303    2.5622447    2.4033741 
C     2.7571437    2.8615601    0.4121877 
C    -0.4618902    3.5452866    1.4584208 
C    -0.6298790    3.8872504    0.0546975 
C     0.6754276    3.7800251   -0.5969211 
C     0.9378201    3.5735572    1.6762387 
C     1.6614547    3.7917363    0.4228052 
