60 

C    -3.6912675   -0.7693077    1.7397635 
C    -3.5782928    0.5920082    2.0160586 
C    -2.4063845    0.7806789    2.8730501 
C    -2.5785547   -1.4661081    2.4069894 
C    -1.7856971   -0.5088485    3.0955616 
C    -1.9834134   -2.3485870    1.4782358 
C    -3.7867685   -1.2543196    0.3888496 
C    -2.7751877   -2.3040708    0.2527183 
C    -3.9785927   -0.3349223   -0.6514447 
C    -3.5325059    1.5430613    0.9412531 
C    -3.8896651    1.1081148   -0.3573217 
C    -1.6361689    1.8112729    2.3234486 
C    -2.3174754    2.3208545    1.1189589 
C    -0.2167980    1.7844039    2.4343612 
C    -0.3856980   -0.6232396    3.0927610 
C     0.3856980    0.6232396    3.0927610 
C    -0.5562420   -2.5188261    1.4554290 
C     0.2167980   -1.7844039    2.4343612 
C     0.0849931   -2.9045537    0.1966636 
C    -2.1149054   -2.4909842   -0.9490565 
C    -0.7233056   -2.8636358   -0.9694663 
C    -3.3090404   -0.5612934   -1.9374542 
C    -2.3883339   -1.6188639   -2.0887510 
C    -3.2224734    1.7138056   -1.4512780 
C    -2.9189619    0.6943594   -2.4669338 
C    -1.5384746    2.7672259    0.0256832 
C    -2.0725908    2.5110876   -1.2925837 
C     0.5562420    2.5188261    1.4554290 
C    -0.0849931    2.9045537    0.1966636 
C     1.9834134    2.3485870    1.4782358 
C     1.7856971    0.5088485    3.0955616 
C     2.5785547    1.4661081    2.4069894 
C     1.6361689   -1.8112729    2.3234486 
C     2.4063845   -0.7806789    2.8730501 
C     1.5384746   -2.7672259    0.0256832 
C     2.3174754   -2.3208545    1.1189589 
C     2.0725908   -2.5110876   -1.2925837 
C    -0.1850603   -2.3446567   -2.2209797 
C    -1.1569487   -1.4353531   -2.8079070 
C     1.1563936   -2.1448738   -2.3752522 
C    -1.6419256    0.9309560   -3.0190069 
C    -1.1563936    2.1448738   -2.3752522 
C    -0.7188380   -0.1457188   -3.2523497 
C     0.7233056    2.8636358   -0.9694663 
C     0.1850603    2.3446567   -2.2209797 
C     2.7751877    2.3040708    0.2527183 
C     2.1149054    2.4909842   -0.9490565 
C     3.6912675    0.7693077    1.7397635 
C     3.5782928   -0.5920082    2.0160586 
C     3.5325059   -1.5430613    0.9412531 
C     3.7867685    1.2543196    0.3888496 
C     3.2224734   -1.7138056   -1.4512780 
C     3.8896651   -1.1081148   -0.3573217 
C     3.9785927    0.3349223   -0.6514447 
C     1.6419256   -0.9309560   -3.0190069 
C     0.7188380    0.1457188   -3.2523497 
C     1.1569487    1.4353531   -2.8079070 
C     2.3883339    1.6188639   -2.0887510 
C     2.9189619   -0.6943594   -2.4669338 
C     3.3090404    0.5612934   -1.9374542 
