60 

C     1.2313747    4.2287183   -0.7899740 
C    -0.0489952    4.2937505   -0.1310098 
C     0.0530825    3.7197868    1.1553136 
C     2.1207317    3.5030904    0.0732274 
C     1.4490238    3.1892437    1.2777221 
C     2.6784181    2.3723605   -0.6333932 
C     1.0274543    3.3724876   -1.9012461 
C     1.9555880    2.2761144   -1.8830099 
C    -1.0787096    3.7810983   -1.0243451 
C    -0.3731191    3.0779507   -2.0917673 
C    -2.2111137    3.1875196   -0.4672330 
C    -1.0439484    2.9659987    1.7086204 
C    -2.2346007    2.7864694    0.9486026 
C    -0.7143642    1.9519435    2.6475887 
C     1.7188745    1.9696763    1.9762488 
C     0.6827982    1.5425070    2.8724811 
C     3.0649459    1.1969642    0.0510739 
C     2.6316723    0.9594026    1.4198025 
C     3.2496245    0.0884531   -0.8178698 
C     1.6061406    1.0028549   -2.4244725 
C     2.4748488   -0.0305293   -2.0447517 
C    -0.7913452    1.7768394   -2.5521964 
C     0.2043963    0.6890868   -2.7589766 
C    -2.8394446    2.1685962   -1.2150062 
C    -2.1229674    1.4210660   -2.2078777 
C    -2.9446469    1.5144404    1.0199234 
C    -3.3914930    1.2100767   -0.2982703 
C    -1.5193694    0.7762145    2.8298842 
C    -2.5334381    0.4347357    1.8783509 
C     0.6774856    0.2404247    3.3825600 
C    -0.6774856   -0.2404247    3.3825600 
C     2.5334381   -0.4347357    1.8783509 
C     1.5193694   -0.7762145    2.8298842 
C     3.3914930   -1.2100767   -0.2982703 
C     2.9446469   -1.5144404    1.0199234 
C     2.1229674   -1.4210660   -2.2078777 
C     2.8394446   -2.1685962   -1.2150062 
C    -0.2043963   -0.6890868   -2.7589766 
C     0.7913452   -1.7768394   -2.5521964 
C    -2.4748488    0.0305293   -2.0447517 
C    -3.2496245   -0.0884531   -0.8178698 
C    -1.6061406   -1.0028549   -2.4244725 
C    -2.6316723   -0.9594026    1.4198025 
C    -3.0649459   -1.1969642    0.0510739 
C    -0.6827982   -1.5425070    2.8724811 
C     0.7143642   -1.9519435    2.6475887 
C    -1.7188745   -1.9696763    1.9762488 
C     2.2346007   -2.7864694    0.9486026 
C     2.2111137   -3.1875196   -0.4672330 
C     1.0439484   -2.9659987    1.7086204 
C     0.3731191   -3.0779507   -2.0917673 
C     1.0787096   -3.7810983   -1.0243451 
C    -1.9555880   -2.2761144   -1.8830099 
C    -2.6784181   -2.3723605   -0.6333932 
C    -1.0274543   -3.3724876   -1.9012461 
C    -1.4490238   -3.1892437    1.2777221 
C    -0.0530825   -3.7197868    1.1553136 
C     0.0489952   -4.2937505   -0.1310098 
C    -2.1207317   -3.5030904    0.0732274 
C    -1.2313747   -4.2287183   -0.7899740 
