60 

C    -0.1907107   -4.2890761    0.1474568 
C     1.1211842   -3.9678562    0.3624318 
C     1.7074557   -3.4759103   -0.9058353 
C    -0.4843653   -3.9794170   -1.2770883 
C     0.6296932   -3.2298398   -1.8089612 
C    -1.7477216   -3.4459977   -1.3099062 
C    -1.2125377   -3.6753190    0.9610219 
C    -2.2976347   -3.4034824    0.0609096 
C    -0.8387482   -2.6397104    1.9082258 
C     1.5422159   -3.0450286    1.3812586 
C     0.5777811   -2.2811568    2.1063252 
C     2.6582730   -2.5173716   -0.6084267 
C     2.7246408   -2.3979322    0.8624111 
C     2.7400566   -1.3227673   -1.3931268 
C     0.4405108   -1.8701849   -2.2939630 
C     1.5556013   -0.9272435   -2.1651835 
C    -2.0164342   -2.1809226   -1.9188721 
C    -0.9405072   -1.3550066   -2.3973186 
C    -3.1091531   -2.2739385    0.1694852 
C    -3.0781495   -1.5814775   -1.1296779 
C    -1.7978881   -1.6044963    2.1294561 
C    -2.9853901   -1.4654978    1.3161824 
C    -1.4205059   -0.2690864    2.5531998 
C     0.9499631   -0.8916287    2.4758389 
C    -0.0635282    0.1452082    2.6463736 
C     3.1743429   -1.2237549    1.4051772 
C     2.2671860   -0.4361881    2.2287789 
C     3.6153601   -0.3400088   -0.8389977 
C     3.9117854   -0.3397004    0.5691966 
C     3.4743563    1.0164653   -1.2456643 
C     1.3187142    0.5055201   -2.3892389 
C     2.3447740    1.4387836   -1.9962901 
C    -1.1796077    0.0849442   -2.4606773 
C    -0.0531161    1.0112847   -2.5341787 
C    -3.2874712   -0.2334585   -1.1804120 
C    -2.4377871    0.5966845   -2.0015655 
C    -3.3461663   -0.0686871    1.2541353 
C    -2.4716539    0.6473793    2.1547757 
C    -3.6287242    0.5327696    0.0156182 
C    -2.2043510    1.9866667    1.9627356 
C     0.2493749    1.5672954    2.4228467 
C    -0.8470465    2.4832043    2.1947061 
C     2.5769276    0.9617592    1.9627430 
C     3.6666201    1.0088431    1.0295544 
C     3.5872290    1.8748554   -0.0823284 
C     1.5583002    1.9665660    1.9426285 
C     1.9769411    2.7444477   -1.4778095 
C     2.5748797    2.8522172   -0.1500714 
C     1.6816160    3.0657068    0.9612301 
C    -0.3150297    2.3988609   -2.2851984 
C     0.7196624    3.2573045   -1.7007981 
C    -2.5970863    1.9446010   -1.5318510 
C    -3.2767763    1.9040745   -0.2310655 
C    -2.7571667    2.6932567    0.8167706 
C    -1.5862897    2.8716914   -1.7768281 
C    -0.6746192    3.6334347    1.4035205 
C     0.5302785    3.8448011    0.6630339 
C     0.1290002    4.0656114   -0.7012586 
C    -1.8403381    3.7448150    0.5049089 
C    -1.3182201    3.8830936   -0.7803439 
