60 

C     1.8075119   -4.3767693    0.5892442 
C     0.4866309   -4.8295276    0.7517389 
C    -0.2286868   -4.5643283   -0.4771366 
C     1.9240884   -3.7788057   -0.7349359 
C     0.6433200   -3.8316131   -1.3946422 
C     2.5595925   -2.5136326   -0.6186122 
C     2.0455609   -3.2839243    1.5152530 
C     2.6738362   -2.2219524    0.8161394 
C    -0.1496077   -3.9568106    1.7327967 
C     0.8071973   -2.9673140    2.1953664 
C    -1.4821926   -3.9631076   -0.1580066 
C    -1.4037255   -3.4944075    1.2391391 
C    -2.0724694   -3.1285162   -1.1045322 
C     0.1551529   -2.6660893   -2.1010381 
C    -1.2564670   -2.4506813   -2.1158632 
C     2.2189870   -1.4283895   -1.4628518 
C     0.9901619   -1.4715552   -2.2307169 
C     2.7950865   -0.1621728   -1.0762973 
C     2.5028249   -0.9006783    1.2498792 
C     2.9929602    0.1016807    0.3405604 
C     0.4163059   -1.6037596    2.3824819 
C     1.4130105   -0.5676155    2.1406583 
C    -1.8856347   -2.1900076    1.5788501 
C    -0.9865844   -1.2203499    2.2313469 
C    -3.0130500   -2.1934917   -0.6334175 
C    -2.9057240   -1.6791608    0.7136543 
C    -1.8391267   -1.1295400   -2.3147000 
C    -3.0212690   -1.0502653   -1.5099249 
C     0.3943900   -0.1786991   -2.5878376 
C    -1.0484123    0.0391431   -2.5148131 
C     2.5079834    0.9484116   -1.8932146 
C     1.2108729    0.9664932   -2.5482016 
C     2.7994813    2.2675359   -1.4596986 
C     2.9821153    1.4272674    0.8096908 
C     3.0753105    2.5128590   -0.1085342 
C     1.0773488    0.8238454    2.3051053 
C     2.0052845    1.7935157    1.8220003 
C    -1.3383977    0.1831764    2.2614739 
C    -0.3198105    1.2087239    2.5034705 
C    -3.1514650   -0.2834793    0.6535148 
C    -3.2355517    0.1098759   -0.7559569 
C    -2.5467140    0.6162709    1.5588567 
C    -1.5747903    1.3494580   -2.1050488 
C    -2.7026484    1.3455009   -1.1800485 
C     0.6738195    2.3168071   -2.4007260 
C     1.6855478    3.1420360   -1.8338883 
C    -0.7136678    2.5241809   -2.0812663 
C     2.2262149    3.6106278    0.3562906 
C     1.6064541    3.1745320    1.5699137 
C     1.3856364    4.0266063   -0.7417543 
C    -0.6590840    2.5926504    2.3696518 
C     0.2967914    3.5718550    1.8593059 
C    -2.7240811    1.9730916    1.2121964 
C    -2.8215722    2.3626772   -0.2033781 
C    -1.9444074    2.9810977    1.8311825 
C    -1.0241221    3.6588311   -1.2360549 
C     0.0435766    4.3391710   -0.4895866 
C    -0.4031172    4.4011629    0.8890564 
C    -2.1629149    3.6121655   -0.3530858 
C    -1.7877605    4.1053938    0.9469515 
