60 

C    -1.2153925    4.5460700    0.3859995 
C     0.0794038    4.8111396   -0.1018456 
C     0.1996159    4.1818348   -1.3857596 
C    -1.9212362    3.7279156   -0.6029460 
C    -1.0537529    3.4813103   -1.7118432 
C    -2.4691457    2.5968655    0.0621646 
C    -1.1079701    3.7520356    1.5738380 
C    -1.9575873    2.6050442    1.4432426 
C     1.0369922    4.1403465    0.7813618 
C     0.3039512    3.5132883    1.8526715 
C     1.3990216    3.4117369   -1.3895131 
C     1.9103498    3.3278156   -0.0044478 
C     1.4498139    2.2594823   -2.1505590 
C    -1.0191744    2.1703021   -2.3018762 
C     0.2509659    1.6797646   -2.7444070 
C    -2.5907231    1.3552226   -0.5785766 
C    -1.9314403    1.1322966   -1.8513215 
C    -2.8496335    0.2150320    0.2914775 
C    -1.6333547    1.3899958    2.0805039 
C    -2.3000847    0.1815155    1.6190690 
C     0.7049466    2.2484808    2.3240305 
C    -0.3393120    1.2914034    2.7340113 
C     2.4032774    2.0933293    0.4900541 
C     1.9423496    1.6632801    1.7968115 
C     2.3233926    1.1769020   -1.7872067 
C     2.8094334    1.0376890   -0.4634393 
C     0.5052065    0.2961130   -2.9647361 
C     1.8647802    0.0198769   -2.5226777 
C    -1.7575987   -0.2474478   -2.2935587 
C    -0.4888095   -0.7088993   -2.8536886 
C    -3.1520904   -0.9891189   -0.3674278 
C    -2.6125569   -1.2180823   -1.7199743 
C    -3.1378791   -2.2312798    0.3163772 
C    -1.9075470   -1.1227061    2.1515739 
C    -2.3191374   -2.3242218    1.4847494 
C     0.0691366    0.0218127    3.1606288 
C    -0.6998320   -1.1822176    2.8819237 
C     2.2920194    0.3620423    2.2324047 
C     1.4440298   -0.3360648    3.1171214 
C     3.1212069   -0.3164990   -0.0036802 
C     2.9499270   -0.6238029    1.3687772 
C     2.2478665   -1.2430883   -2.1788016 
C     2.9931425   -1.4244854   -0.9331771 
C    -0.0560581   -2.1024051   -2.6625360 
C     1.3349454   -2.3513009   -2.3649865 
C    -2.3205671   -2.6099694   -1.8066529 
C    -2.7831871   -3.2767868   -0.6133223 
C    -0.9861001   -3.0446804   -2.1279055 
C    -1.3819298   -3.4209678    1.2475198 
C    -1.6708486   -3.9517030   -0.0757355 
C    -0.5990662   -3.9636839   -1.0523869 
C     0.2309578   -2.2909558    2.6862907 
C     1.5305655   -1.7445995    2.8118649 
C     2.5069897   -1.9435004    1.7952995 
C    -0.0404428   -3.3290454    1.7169710 
C     2.6810580   -2.7253498   -0.4959194 
C     1.6972427   -3.3174229   -1.3852626 
C     0.7171017   -3.9705335   -0.5943151 
C     2.2732155   -2.9725552    0.8547419 
C     1.0295525   -3.7065704    0.8290066 
