60 

C    -2.9559263   -2.8606719    1.1622540 
C    -2.3893181   -3.3969752   -0.0475733 
C    -1.0880924   -3.9185812    0.2444615 
C    -1.8859162   -2.7356116    2.0750785 
C    -0.7251081   -3.4350221    1.5855568 
C    -1.7915566   -1.3491259    2.5179154 
C    -3.4231901   -1.5293799    0.8881531 
C    -2.8330688   -0.6148533    1.8180016 
C    -2.5069117   -2.3954533   -1.0713024 
C    -3.2197547   -1.2493119   -0.4931498 
C    -1.4511919   -2.1589446   -2.0125464 
C    -0.1284354   -3.8811234   -0.7678772 
C    -0.3191529   -3.0327807   -1.9513106 
C     1.2295189   -3.7766305   -0.3872570 
C     0.5597009   -2.8999947    1.8351233 
C     1.6011612   -3.2621850    0.9017830 
C    -0.5450205   -0.7461630    2.7425542 
C     0.6634707   -1.5781525    2.5268012 
C    -0.4862327    0.7280688    2.6863721 
C    -2.6640590    0.7288005    1.4672920 
C    -1.6269720    1.4703130    2.1696762 
C    -2.9820938    0.0817953   -0.9091770 
C    -3.0327383    1.1245663    0.1131113 
C    -1.2855553   -0.8018836   -2.5448727 
C    -2.1451727    0.2986548   -2.0791307 
C    -0.0041121   -0.4355999   -3.0337053 
C     0.9956223   -2.5674655   -2.3435799 
C     1.9718653   -3.0710032   -1.4064887 
C     1.1503527   -1.2746908   -2.8296348 
C     2.7166514   -2.3990361    0.6746348 
C     2.8745312   -2.1902492   -0.7889030 
C     1.8856421   -0.9073883    2.4506745 
C     2.9386055   -1.3332137    1.5220203 
C     0.8134148    1.3682483    2.6742404 
C     1.9644828    0.5497682    2.5586740 
C     0.9436485    2.7190069    2.1478475 
C    -1.4760155    2.8490920    1.8032258 
C    -0.1823783    3.4643368    1.8455662 
C    -2.7508419    2.4564320   -0.2758374 
C    -2.1231486    3.3475302    0.6353376 
C    -1.7607911    1.6401057   -2.3762575 
C    -2.2117662    2.7197799   -1.5779771 
C     0.4702936    0.9321483   -3.0006836 
C    -0.3980962    1.9678571   -2.7559266 
C     2.2416701   -0.4234758   -2.3760520 
C     3.0829265   -0.8548065   -1.3069259 
C     1.8148208    0.9491146   -2.4887385 
C     3.5478494   -0.1523935    1.0096105 
C     3.0401807    0.9726908    1.7239234 
C     3.5018425    0.1601206   -0.3908415 
C     1.9311277    3.0067096    1.0822090 
C     2.1914721    1.9755505   -1.5560306 
C     2.9005751    2.0739537    0.8178925 
C     3.0804148    1.5504181   -0.5266752 
C     0.0354499    4.2003410    0.5741170 
C    -1.1550269    4.1788857   -0.1341433 
C    -1.1588501    3.7238035   -1.4691040 
C     0.0285102    3.1675299   -2.0465911 
C     1.2554989    3.7056232    0.0084697 
C     1.2751935    3.1209210   -1.3142843 
