60 

C     0.6991093   -4.2601597   -0.2595527 
C     0.9248351   -3.8845688    1.0859280 
C     2.1855337   -3.1442434    1.1573176 
C     1.6682302   -3.4943172   -1.0556967 
C     2.5805610   -2.8222030   -0.1766794 
C     0.9602021   -2.7694742   -2.0579283 
C    -0.5695364   -4.0583737   -0.8084390 
C    -0.4045756   -3.2185532   -2.0189304 
C    -1.6203518   -3.4907364   -0.0493566 
C    -0.0553438   -3.1550076    1.8193737 
C    -1.3680710   -2.9573983    1.2836446 
C     2.0397627   -2.0959494    2.0908394 
C     0.6375657   -2.0334981    2.4750932 
C     2.7509036   -0.9224093    1.8832926 
C     3.0287945   -1.5045431   -0.5004071 
C     3.3876079   -0.6730599    0.6029856 
C     1.2392093   -1.3814410   -2.3019398 
C     2.4558420   -0.8292328   -1.6781139 
C     0.1407262   -0.4913721   -2.6567193 
C    -1.4551234   -2.3154577   -2.1061310 
C    -2.3391236   -2.6191587   -0.9707951 
C    -1.2428344   -0.9457205   -2.4834561 
C    -3.1808216   -1.6738687   -0.4972860 
C    -2.1104848   -1.7850314    1.7261829 
C    -3.2459401   -1.3957126    0.9356832 
C     0.0198308   -0.7892836    2.6975630 
C    -1.4294113   -0.7148264    2.4812271 
C     2.2234239    0.3357965    2.3279182 
C     0.8520333    0.4372275    2.6785357 
C     3.5451016    0.7468466    0.4575349 
C     2.8941509    1.3921910    1.5781199 
C     2.7129553    0.5382872   -1.8298346 
C     3.4170792    1.3117857   -0.8271084 
C     0.3982313    0.9402467   -2.7276711 
C     1.7331352    1.4249245   -2.4739171 
C    -0.6667580    1.8600979   -2.5282856 
C    -2.2896516    0.0026211   -2.1461322 
C    -3.3417862   -0.4080507   -1.2219836 
C    -1.9960345    1.3902085   -2.1772289 
C    -3.8046609   -0.1089165    1.0344583 
C    -3.9028556    0.5027163   -0.3220881 
C    -2.0224815    0.5812223    2.5283240 
C    -3.2621100    0.8514596    1.8796670 
C     0.2143444    1.7371961    2.4434846 
C    -1.1973844    1.7728694    2.3586853 
C     2.2913534    2.6446633    1.4120886 
C     0.9248806    2.8054198    1.8187169 
C     2.9597605    2.6600889   -0.9407384 
C     1.9493205    2.7395883   -2.0202895 
C     2.4650883    3.3468537    0.1616556 
C    -0.4444961    3.1306805   -1.8665978 
C     0.2474471    3.6465797    0.8061543 
C     0.8616517    3.5492048   -1.5739757 
C     1.1713675    3.9278451   -0.2121769 
C    -2.5436334    2.3094413   -1.2196223 
C    -3.4479811    1.8567990   -0.2364569 
C    -3.1225671    2.1090070    1.1372926 
C    -1.8901262    2.7001371    1.4723394 
C    -1.4922796    3.2593071   -0.8830266 
C    -1.1336148    3.4312556    0.4944594 
