60 

C     1.0025269   -4.0202946    0.6823155 
C    -0.1365244   -4.2327728   -0.0822651 
C    -1.2997213   -3.8329810    0.7040664 
C     0.5696373   -3.3303371    1.9203251 
C    -0.8380763   -3.1371895    1.8807631 
C     1.4384663   -2.2605694    2.1469185 
C     2.1297324   -3.3259670    0.1556844 
C     2.5317919   -2.3510064    1.1667518 
C     2.1057352   -2.9006302   -1.1919722 
C    -0.2661621   -3.6152654   -1.3867915 
C     0.8457008   -2.9663829   -1.9303824 
C    -2.2085593   -3.1958014   -0.1512936 
C    -1.5583069   -2.9589297   -1.4510669 
C    -3.0282162   -2.2044387    0.3970907 
C    -1.3839250   -1.8323202    2.2188930 
C    -2.6217852   -1.5038511    1.6071904 
C     0.9505890   -0.9650810    2.5660730 
C    -0.4813111   -0.7352784    2.6141227 
C     1.8735054    0.1500757    2.4114299 
C     3.2151591   -1.2117608    0.8090790 
C     3.0025697    0.0195275    1.5331598 
C     2.7580897   -1.6603736   -1.5536890 
C     3.4291590   -0.8886561   -0.5946044 
C     0.6752427   -1.6961788   -2.6253380 
C     1.9141901   -0.9719416   -2.5075811 
C    -1.7343991   -1.7010106   -2.1033802 
C    -0.5732659   -1.0104375   -2.6754579 
C    -3.5474337   -1.2348118   -0.4831292 
C    -2.8504148   -0.8984661   -1.6739753 
C    -3.0764328   -0.1240466    1.4813550 
C    -3.7642517   -0.0054360    0.2490217 
C    -0.9837471    0.6538219    2.5899841 
C    -2.2923945    0.9665331    1.9772735 
C     1.3738490    1.4648848    2.6202845 
C    -0.0533949    1.7089387    2.7057274 
C     1.9698260    2.5798031    1.9691809 
C     3.3538690    1.1047858    0.6520666 
C     3.4689287    0.5506578   -0.6908871 
C     2.8212337    2.3829186    0.8515788 
C     1.9179937    0.4172123   -2.5802221 
C     2.7893597    1.2068736   -1.7257886 
C    -0.5657783    0.4607265   -2.7703132 
C     0.6895781    1.1285167   -2.7860922 
C    -2.8381759    0.5589751   -1.7842730 
C    -3.5131612    1.0908955   -0.6046461 
C    -1.7249155    1.2480260   -2.3264252 
C    -2.4889379    2.2260037    1.3333199 
C    -3.0678924    2.2651996   -0.0093166 
C    -0.3058299    3.0393459    2.1321412 
C     0.9308394    3.5270163    1.6191337 
C    -1.4703908    3.2628480    1.3885844 
C     2.2365542    3.1332611   -0.2655631 
C     2.1488372    2.4849881   -1.5000802 
C     0.8743327    2.4667834   -2.2263440 
C     1.0810568    3.8733713    0.2405555 
C    -1.5344737    2.6253111   -1.8922136 
C    -2.2595668    3.1292541   -0.7894771 
C    -1.3462172    3.8504190    0.0864831 
C    -0.1964662    3.2149652   -1.7984738 
C    -0.0882254    3.9802764   -0.5495112 
