60 

C    -1.7444490   -0.0398321   -4.3195312 
C    -0.3621507   -0.3546806   -4.4059485 
C     0.3908890    0.8372517   -4.2286290 
C    -1.8185287    1.3061935   -3.7059995 
C    -0.5367114    1.8647798   -3.6966199 
C    -2.5476533    1.2452977   -2.4713787 
C    -2.3022094   -0.9108502   -3.3494339 
C    -3.0124640   -0.1375044   -2.3725094 
C    -0.0775603   -1.4938574   -3.4899167 
C    -1.3129993   -1.8513308   -2.8420011 
C     1.1248245   -1.5632250   -2.7753385 
C     1.5198484    0.8088981   -3.4159211 
C     2.0642297   -0.4434924   -2.9381922 
C     0.0315363    2.3541604   -2.4836732 
C     1.3896671    1.8656529   -2.4212224 
C    -2.0643260    1.8667677   -1.2649336 
C    -0.7103014    2.4238253   -1.2545232 
C    -2.6276476    1.4058201    0.0000000 
C    -3.2171957   -0.6953722   -1.1404400 
C    -3.3266749    0.1589519    0.0000000 
C    -1.3450209   -2.2692751   -1.4680763 
C    -2.4956619   -1.8816915   -0.7083614 
C     1.1378605   -2.2580751   -1.4623956 
C    -0.1074357   -2.4856230   -0.7399207 
C     2.3386041   -2.2372681   -0.7266302 
C     3.0958775   -0.3040536   -2.0199439 
C     3.4383505   -1.3902398   -1.1447098 
C     2.1304820    1.8470580   -1.2306144 
C     3.2303643    0.9217859   -1.2146101 
C     0.0339072    2.4828262    0.0000000 
C     1.4802660    2.2528584    0.0000000 
C    -2.0643260    1.8667677    1.2649336 
C    -0.7103014    2.4238253    1.2545232 
C    -2.5476533    1.2452977    2.4713787 
C    -3.2171957   -0.6953722    1.1404400 
C    -2.4956619   -1.8816915    0.7083614 
C    -3.0124640   -0.1375044    2.3725094 
C    -0.1074357   -2.4856230    0.7399207 
C    -1.3450209   -2.2692751    1.4680763 
C     2.3386041   -2.2372681    0.7266302 
C     1.1378605   -2.2580751    1.4623956 
C     4.1103083   -0.8956351    0.0000000 
C     3.8541085    0.5445791    0.0000000 
C     3.4383505   -1.3902398    1.1447098 
C     2.1304820    1.8470580    1.2306144 
C     3.2303643    0.9217859    1.2146101 
C     3.0958775   -0.3040536    2.0199439 
C     0.0315363    2.3541604    2.4836732 
C     1.3896671    1.8656529    2.4212224 
C    -1.8185287    1.3061935    3.7059995 
C    -0.5367114    1.8647798    3.6966199 
C    -2.3022094   -0.9108502    3.3494339 
C    -1.3129993   -1.8513308    2.8420011 
C    -1.7444490   -0.0398321    4.3195312 
C     1.1248245   -1.5632250    2.7753385 
C     2.0642297   -0.4434924    2.9381922 
C     1.5198484    0.8088981    3.4159211 
C     0.3908890    0.8372517    4.2286290 
C    -0.0775603   -1.4938574    3.4899167 
C    -0.3621507   -0.3546806    4.4059485 
