60 

C     0.0000000    4.3550189    0.7941496 
C     1.2139935    4.1018677    0.1441529 
C     2.0500031    3.3271155    1.0435484 
C     0.0000000    3.5670553    2.0688648 
C     1.2215595    2.8631090    2.1457829 
C    -1.2215595    2.8631090    2.1457829 
C    -1.2139935    4.1018677    0.1441529 
C    -2.0500031    3.3271155    1.0435484 
C    -1.2492676    3.4962436   -1.1615671 
C     1.2492676    3.4962436   -1.1615671 
C     0.0000000    3.2138680   -1.8434343 
C     2.7481010    2.3944935    0.2626577 
C     2.2684240    2.4623010   -1.1187176 
C     3.0171148    1.1490590    0.8034688 
C     1.2449619    1.4606446    2.5293342 
C     2.3357002    0.7109989    2.0136159 
C    -1.2449619    1.4606446    2.5293342 
C     0.0000000    0.7382577    2.7853075 
C    -2.3357002    0.7109989    2.0136159 
C    -2.7481010    2.3944935    0.2626577 
C    -2.2684240    2.4623010   -1.1187176 
C    -3.0171148    1.1490590    0.8034688 
C    -2.2177885    1.2822819   -1.9160651 
C     0.0000000    2.1066971   -2.7192780 
C    -1.1599144    1.2412249   -2.8789026 
C     2.2177885    1.2822819   -1.9160651 
C     1.1599144    1.2412249   -2.8789026 
C     3.1937327    0.0000000   -0.0341493 
C     2.7287613    0.0000000   -1.3843906 
C     2.3357002   -0.7109989    2.0136159 
C     3.0171148   -1.1490590    0.8034688 
C     0.0000000   -0.7382577    2.7853075 
C     1.2449619   -1.4606446    2.5293342 
C    -2.3357002   -0.7109989    2.0136159 
C    -1.2449619   -1.4606446    2.5293342 
C    -3.1937327    0.0000000   -0.0341493 
C    -2.7287613    0.0000000   -1.3843906 
C    -3.0171148   -1.1490590    0.8034688 
C    -2.2177885   -1.2822819   -1.9160651 
C    -0.7160063    0.0000000   -3.4016867 
C     0.7160063    0.0000000   -3.4016867 
C    -1.1599144   -1.2412249   -2.8789026 
C     2.2177885   -1.2822819   -1.9160651 
C     1.1599144   -1.2412249   -2.8789026 
C     0.0000000   -2.1066971   -2.7192780 
C     2.7481010   -2.3944935    0.2626577 
C     2.2684240   -2.4623010   -1.1187176 
C     1.2215595   -2.8631090    2.1457829 
C     2.0500031   -3.3271155    1.0435484 
C    -1.2215595   -2.8631090    2.1457829 
C     0.0000000   -3.5670553    2.0688648 
C    -2.7481010   -2.3944935    0.2626577 
C    -2.2684240   -2.4623010   -1.1187176 
C    -2.0500031   -3.3271155    1.0435484 
C     0.0000000   -3.2138680   -1.8434343 
C     1.2492676   -3.4962436   -1.1615671 
C     1.2139935   -4.1018677    0.1441529 
C     0.0000000   -4.3550189    0.7941496 
C    -1.2492676   -3.4962436   -1.1615671 
C    -1.2139935   -4.1018677    0.1441529 
