60 

C     1.8289759   -4.3538498   -0.0624112 
C     0.9756853   -4.3654035    1.1386996 
C    -0.3301949   -4.6570095    0.7271487 
C     0.9199193   -4.2471614   -1.2148492 
C    -0.3699628   -4.5248466   -0.7797644 
C     1.1821026   -2.9932489   -1.9187322 
C     2.5568438   -3.1786144   -0.0380192 
C     2.3196590   -2.4104418   -1.2645909 
C     1.1984352   -3.1354721    1.8743086 
C     2.2894026   -2.4560056    1.2089367 
C     0.1068386   -2.3079629    2.3352292 
C    -1.4082844   -3.9184653    1.2236804 
C    -1.2353411   -2.7645773    2.0513324 
C    -1.4563586   -3.6636445   -1.1230987 
C    -2.2149632   -3.4757239    0.0798124 
C     0.1263278   -2.1168764   -2.3475922 
C    -1.2408716   -2.5006484   -1.9782742 
C     0.4546806   -0.7034144   -2.5617488 
C     2.5349597   -1.0452819   -1.2520763 
C     1.7655857   -0.2215769   -2.1755459 
C     2.4381657   -1.0782273    1.2321527 
C     2.9393030   -0.4306813    0.0187715 
C     0.3202855   -0.8749674    2.4736165 
C     1.5759039   -0.2764860    2.0886202 
C    -0.8454207    0.0259435    2.5186779 
C    -2.2396433   -1.7770459    1.6423783 
C    -2.8235449   -2.2543901    0.3967723 
C    -2.0883884   -0.4103457    1.8664966 
C    -2.1668789   -1.4404276   -1.8361908 
C    -2.9861510   -1.3221808   -0.6266949 
C    -0.5965909    0.3110658   -2.6669084 
C    -1.8895508   -0.1082035   -2.2749367 
C    -0.2974167    1.7605614   -2.5886314 
C     2.0495173    1.1607668   -2.1632595 
C     1.0391231    2.1767292   -2.4249556 
C     3.0991716    0.9394136    0.0281458 
C     2.9205174    1.6848845   -1.1699154 
C     1.7491626    1.1621447    2.0915738 
C     2.6224992    1.7717505    1.1435866 
C    -0.6562863    1.3906527    2.6643107 
C     0.6812939    1.9787195    2.6085598 
C    -1.5940541    2.3855300    2.1402195 
C    -2.7635508    0.5500348    0.9819257 
C    -3.1382923    0.0459443   -0.3034491 
C    -2.7099243    0.7942864   -1.4629986 
C    -2.5112346    1.9698087    1.1159186 
C    -1.3153317    2.6822719   -2.0861685 
C    -2.4442795    2.1183520   -1.3636138 
C    -2.5795403    2.8014399   -0.0727604 
C    -0.9901812    3.8770543   -1.4218352 
C    -1.8156939    3.9819472   -0.1871321 
C     1.3805430    3.3718262   -1.6400093 
C     2.4675300    3.0043701   -0.8074543 
C     2.3613944    3.0963059    0.6298549 
C     0.3634440    4.2015335   -1.0912159 
C     0.5493720    3.3298464    2.2628192 
C    -0.8764990    3.6086632    2.0207896 
C    -0.9619379    4.3883581    0.8528825 
C     1.3226163    3.8947852    1.1849690 
C     0.4071095    4.5481906    0.3026435 
