60 

C    -0.1735179    3.9584857    0.8808530 
C    -1.4966234    3.7435062    0.4783411 
C    -1.5102101    3.6020482   -0.9604677 
C     0.6713088    3.9939068   -0.3256891 
C    -0.1388805    3.6304614   -1.4358794 
C     1.8893692    3.3337785   -0.0327482 
C     0.4616718    3.1327961    1.8443333 
C     1.8158658    2.8738191    1.3604841 
C    -0.2747001    2.0959839    2.5235401 
C    -2.2373057    2.6663298    1.0573558 
C    -1.6836101    1.9277044    2.1517418 
C    -2.3526864    2.5064421   -1.2562654 
C    -2.8964467    1.9481345   -0.0186720 
C    -1.9665360    1.5989557   -2.2550869 
C     0.3297481    2.5831047   -2.3248558 
C    -0.6316386    1.6449871   -2.8199427 
C     2.4541426    2.4760612   -0.9908402 
C     1.6526954    2.0730609   -2.1375476 
C     3.2289059    1.3351797   -0.5708821 
C     2.4771752    1.7216902    1.7335443 
C     3.3022946    0.9916721    0.7824689 
C     0.4820239    0.9245206    2.9918592 
C     1.8355328    0.7555581    2.5948038 
C    -0.2263043   -0.2872383    3.2956660 
C    -2.2980699    0.6531345    2.3698290 
C    -1.6108734   -0.3419186    3.1009232 
C    -3.2403911    0.5731802    0.0798032 
C    -3.1037729   -0.0136731    1.3642845 
C    -2.4347885    0.2341018   -2.2406755 
C    -3.1152071   -0.3042205   -1.1053588 
C    -0.2844271    0.2920565   -3.1601290 
C    -1.4572514   -0.5458886   -2.9615800 
C     1.9826963    0.6957662   -2.4452199 
C     3.0314458    0.2699753   -1.5479264 
C     1.0135853   -0.2403542   -2.9372929 
C     3.1693591   -1.0608781   -1.1881679 
C     3.2995545   -0.3996074    1.1755924 
C     2.3716915   -0.5537290    2.2661995 
C     3.3941275   -1.4105486    0.2007231 
C     0.2915563   -1.6085514    2.9412922 
C     1.5709532   -1.7543420    2.3891897 
C    -1.9834060   -1.6623891    2.5993870 
C    -2.8983430   -1.4592714    1.5206382 
C    -0.8293886   -2.4417950    2.4688084 
C    -3.0141314   -1.7220753   -0.9176851 
C    -2.8271485   -2.2967928    0.4206687 
C    -1.3260921   -1.9021205   -2.7225539 
C    -2.2267387   -2.5016301   -1.7943103 
C     1.1618639   -1.6741957   -2.6042562 
C     2.2821917   -2.0736815   -1.7795674 
C     0.0015393   -2.4914437   -2.5294718 
C     2.7280662   -2.6529694    0.4213885 
C     1.7734574   -2.8284809    1.4321926 
C     2.1432866   -3.1111622   -0.8370501 
C    -0.6915487   -3.3165535    1.3264537 
C    -1.7821729   -3.3129871    0.3587010 
C    -1.4764266   -3.4719563   -1.0204640 
C    -0.1409343   -3.5250527   -1.5006080 
C     0.6230560   -3.5550142    0.8548239 
C     0.8904075   -3.7158803   -0.5646957 
