60 

C    -0.0594297   -4.4041700    0.1804708 
C     1.0212157   -3.9854237    0.9240583 
C     2.0650286   -3.4597602    0.0237145 
C     0.2644563   -4.0535183   -1.2439913 
C     1.5104829   -3.3318421   -1.2878770 
C    -0.8594462   -3.4907519   -1.7863557 
C    -1.3811742   -3.9044441    0.4825574 
C    -1.9460060   -3.4886358   -0.7764412 
C    -1.5490667   -3.0419024    1.6071383 
C     0.8870527   -3.0419406    2.0241970 
C    -0.3997392   -2.5902085    2.3581092 
C     2.6504215   -2.3580393    0.6508066 
C     1.9296069   -2.0754969    1.8971774 
C     3.1663946   -1.3023522   -0.1390180 
C     1.5939352   -2.0518157   -1.9564730 
C     2.6382510   -1.1501761   -1.5036264 
C    -0.8358359   -2.2026733   -2.4223341 
C     0.3801866   -1.4568399   -2.5262748 
C    -2.6467090   -2.2983095   -0.9154978 
C    -2.0102500   -1.5167508   -2.0025485 
C    -2.4473834   -1.9085468    1.5011669 
C    -3.0701651   -1.5799452    0.2586828 
C    -0.6059031   -1.1786459    2.6950192 
C    -1.9386032   -0.8137522    2.2974851 
C     1.7584413   -0.7074596    2.2962817 
C     0.4297875   -0.2145446    2.6774845 
C     3.5059604   -0.1449393    0.6049179 
C     2.7061366    0.1873194    1.7702537 
C     3.7683524    1.0730950   -0.0664940 
C     2.6586891    0.1560550   -2.0564964 
C     3.3760063    1.2104848   -1.4003911 
C     0.2550740    0.0053180   -2.6542475 
C     1.4477697    0.7480421   -2.5682222 
C    -2.1498998   -0.1096744   -2.0646178 
C    -1.0170369    0.7121905   -2.4439320 
C    -3.4567764   -0.2492655    0.0645009 
C    -3.1846316    0.4297122   -1.2289752 
C    -2.3139698    0.5316782    2.0899698 
C    -3.3350072    0.7395823    1.0865331 
C     0.0825150    1.2100007    2.5119861 
C    -1.3231865    1.5905049    2.3345502 
C     2.4421549    1.6213462    1.7459454 
C     3.1994457    2.1897513    0.6920214 
C     1.1394930    2.1281582    2.0941132 
C     2.6370589    2.4591598   -1.5358913 
C     1.4377624    2.1780674   -2.2203906 
C     2.5899911    3.0972975   -0.2374271 
C    -1.0487004    2.1589941   -2.1288769 
C     0.2214848    2.8578590   -1.8997858 
C    -3.2423660    1.7924441   -1.0202159 
C    -3.4383036    2.0066473    0.4358093 
C    -2.2224517    2.6835216   -1.4795513 
C    -1.6172303    2.9050673    1.8091958 
C    -2.6868838    3.0743429    0.8216327 
C    -2.0782420    3.6584082   -0.4082845 
C     0.7791080    3.3535102    1.4297606 
C     1.4059014    3.6954684    0.1323402 
C     0.3190381    3.8185519   -0.8242736 
C    -0.5630080    3.7265481    1.3574155 
C    -0.8397969    4.1126983   -0.0567844 
