60 

C    -2.2350600   -4.1329246   -0.0882142 
C    -1.1443373   -4.6025997   -0.8320969 
C     0.0156303   -4.5339878   -0.0035369 
C    -1.7310162   -3.6999487    1.2387254 
C    -0.3292834   -3.9587519    1.3099527 
C    -2.1875796   -2.3874393    1.5061007 
C    -2.7260572   -2.9504759   -0.7139461 
C    -2.8799676   -1.9354198    0.2732711 
C    -0.9012087   -3.6456915   -1.9357373 
C    -1.9061855   -2.6207229   -1.8812036 
C     1.0737701   -3.9180665   -0.7527061 
C     0.4567371   -3.2514178   -1.9360097 
C     2.0626882   -3.2765431   -0.0625138 
C     0.5507192   -3.0100040    1.9174771 
C     1.8907779   -2.9618034    1.3738041 
C    -1.3823756   -1.4440736    2.1971874 
C     0.0164817   -1.7632566    2.4726862 
C    -1.8262361   -0.0610968    2.1159433 
C    -2.8137699   -0.6037753   -0.0971735 
C    -2.6585449    0.3444353    0.9852594 
C    -1.5589406   -1.2743639   -2.1317915 
C    -2.3013187   -0.2332783   -1.4179359 
C     0.8452021   -1.9204952   -2.2636565 
C    -0.2018564   -0.9263943   -2.5100525 
C     2.7812075   -2.1790614   -0.6891526 
C     2.1534964   -1.4657368   -1.7860061 
C     2.7034809   -1.8547877    1.5968205 
C     3.3722238   -1.4393938    0.3493001 
C     0.9068209   -0.6270415    2.7042682 
C     2.2625105   -0.6770145    2.2477931 
C    -1.0364475    0.9602655    2.6751244 
C     0.3729780    0.6836719    2.8427760 
C    -1.2173250    2.3540360    2.3563567 
C    -2.7836804    1.6788590    0.6423728 
C    -2.2229918    2.7458853    1.4449819 
C    -2.0715985    1.1322618   -1.6882127 
C    -2.6606096    2.0835615   -0.7666684 
C     0.1389551    0.4775499   -2.6304394 
C    -0.8776744    1.5292726   -2.4430192 
C     2.4533260   -0.0979099   -1.8911434 
C     1.5003324    0.8386981   -2.4626125 
C     3.4613403   -0.0343022    0.3382794 
C     2.8460274    0.4723750    1.5614021 
C     3.1726215    0.6277992   -0.8638911 
C     1.0700053    1.8630191    2.4102288 
C     0.1086506    2.9335910    2.2054554 
C     2.2282789    1.7406650    1.5791150 
C     0.3464743    3.9447764    1.2646375 
C    -2.0216125    3.8714467    0.5959373 
C    -2.3140898    3.4360414   -0.8014115 
C    -0.7777999    4.5212593    0.5527288 
C    -0.4769719    2.8918984   -2.3781747 
C    -1.2688729    3.8842468   -1.6566161 
C    -0.3881508    4.6653140   -0.8481369 
C     1.8350290    2.1534321   -2.0053435 
C     2.6851315    1.9741276   -0.8359696 
C     2.3109776    2.6111073    0.3897295 
C     1.4303150    3.7318777    0.2868523 
C     0.9187087    3.1841427   -2.0637618 
C     0.9306648    4.1521622   -0.9974333 
