60 

C     0.6372684   -4.0098396    1.0433249 
C    -0.3122219   -4.2119893    0.0480372 
C    -1.6065436   -3.7338853    0.5293693 
C    -0.0277810   -3.2517584    2.1158500 
C    -1.4035764   -3.0228026    1.7582762 
C     0.7915359   -2.1809978    2.4648711 
C     1.8877883   -3.3796001    0.7477156 
C     2.0758237   -2.3358417    1.7450535 
C     2.1922379   -3.0478809   -0.5904872 
C    -0.1167426   -3.6660289   -1.2766497 
C     1.1253267   -3.1105658   -1.5960237 
C    -2.2703871   -3.0946738   -0.5369344 
C    -1.3168342   -2.9408075   -1.6458566 
C    -3.1445841   -2.0566388   -0.2223316 
C    -1.9819944   -1.7193251    1.9521657 
C    -3.0276481   -1.3605131    1.0514591 
C     0.2532115   -0.8648697    2.7138235 
C    -1.1661665   -0.6284267    2.5189763 
C     1.1997244    0.2420919    2.6312014 
C     2.8499233   -1.2327176    1.4672371 
C     2.4756122    0.0676056    1.9792541 
C     2.9983597   -1.8836579   -0.8807659 
C     3.4338700   -1.0423473    0.1545790 
C     1.2042261   -1.8956012   -2.3826754 
C     2.4597177   -1.2515707   -2.0717399 
C    -1.2490043   -1.6952760   -2.3437992 
C     0.0432871   -1.1190906   -2.6995511 
C    -3.3557309   -1.0532386   -1.2036891 
C    -2.3544048   -0.7910796   -2.1752975 
C    -3.3938820    0.0282508    0.8310705 
C    -3.6927228    0.1837465   -0.5542340 
C    -1.6462074    0.7546856    2.4241620 
C    -2.7734355    1.0902667    1.5479973 
C     0.7006601    1.5486228    2.6756223 
C    -0.7111586    1.7983758    2.7108433 
C     1.3710860    2.6591311    1.9731176 
C     3.0183883    1.0742700    1.1187534 
C     3.5648987    0.3818399   -0.0524091 
C     2.4238612    2.3739520    1.0294265 
C     2.6176744    0.1008600   -2.2877657 
C     3.3280422    0.9305069   -1.3150665 
C     0.1877867    0.3373285   -2.8508553 
C     1.4972345    0.8853304   -2.7844419 
C    -2.1779918    0.6586336   -2.2523582 
C    -3.1050656    1.2498469   -1.2845265 
C    -0.9328442    1.2482931   -2.5347363 
C    -2.7774602    2.3720844    0.8737016 
C    -2.7574460    2.3799580   -0.5845844 
C    -0.8899104    3.1334873    2.2000227 
C     0.4025433    3.6319899    1.7010381 
C    -1.8691178    3.3832177    1.2575884 
C    -0.6864658    2.6172709   -1.9937835 
C    -1.6277252    3.1790156   -1.0415843 
C     0.2117163    4.0916187    0.3453793 
C    -1.1792071    3.9343280    0.0555043 
C     2.3436688    2.9967036   -0.2642665 
C     2.7820495    2.2459245   -1.4041009 
C     1.7029235    2.2231213   -2.3340790 
C     1.1280191    3.7100895   -0.6410115 
C     0.6457944    3.0685771   -1.8598164 
