60 

C    -0.2408788   -3.9781751    0.5002146 
C    -1.1729369   -3.8099254   -0.5098663 
C    -2.3589756   -3.1970360    0.0640870 
C    -0.7980920   -3.3367938    1.7272611 
C    -2.0736602   -2.7972473    1.4311388 
C     0.2077881   -2.5601878    2.2995308 
C     1.1055064   -3.5846376    0.3496171 
C     1.4614245   -2.8991913    1.5891834 
C     1.5853340   -3.0655160   -0.9125708 
C    -0.8057884   -3.0842175   -1.7097743 
C     0.5664630   -2.7380576   -1.9327867 
C    -2.8260725   -2.2434781   -0.8611577 
C    -1.8621054   -2.1365937   -1.9680525 
C    -3.4367857   -1.1014461   -0.3670093 
C    -2.3923186   -1.4767870    1.8766530 
C    -3.3415831   -0.7801655    1.0483167 
C    -0.0390901   -1.2171774    2.7473567 
C    -1.3810593   -0.6711675    2.5790808 
C     1.1276655   -0.3205647    2.8039771 
C     2.5286347   -2.0465608    1.6138208 
C     2.3844609   -0.7288905    2.2415179 
C     2.7688631   -2.2670493   -0.8410558 
C     3.3079857   -1.9002410    0.4255852 
C     2.9795188   -1.1125876   -1.7192812 
C     0.7756884   -1.5711398   -2.7287510 
C     1.9968551   -0.7821325   -2.6333589 
C    -1.6180056   -0.8694258   -2.5644699 
C    -0.2938737   -0.6697294   -3.0493831 
C    -3.3977064    0.1497764   -1.1248304 
C    -2.4244448    0.3049904   -2.1651788 
C    -3.4883906    0.6162990    1.1382552 
C    -3.6251063    1.1933373   -0.1992083 
C    -1.5510009    0.7973807    2.6350182 
C    -2.6337009    1.4266133    1.9059735 
C     0.9222255    1.0732953    2.8858778 
C    -0.4219610    1.6255303    2.8856169 
C     1.7977625    2.0173146    2.2270659 
C     3.2022444    0.1891764    1.4967663 
C     3.7456769   -0.5339183    0.3772226 
C     3.6075328   -0.0355180   -0.9406450 
C     2.8256993    1.5643697    1.3477359 
C     3.1976532    1.2995190   -1.1072116 
C     2.9025195    2.1491402    0.0368013 
C     1.6689744    0.6138393   -2.8980963 
C     0.2605467    0.6708362   -3.1805449 
C     2.2792303    1.6434116   -2.1684505 
C    -1.8395972    1.6144382   -2.2904823 
C    -0.4888546    1.7766425   -2.7914302 
C    -2.9090054    2.4066544   -0.2195386 
C    -2.4097874    2.6583464    1.1309513 
C    -2.0738585    2.6634235   -1.3252294 
C    -0.3395055    2.9484362    2.3340399 
C     0.9957748    3.1404114    1.8700800 
C    -1.2358307    3.3685137    1.3047438 
C     1.9188939    3.1304559   -0.3830798 
C     1.4934842    2.7793463   -1.7308297 
C     0.1451950    2.8747714   -2.0784704 
C    -0.8317795    3.3980316   -1.1379142 
C     0.9769009    3.6395010    0.5227421 
C    -0.4247469    3.7817560    0.1424259 
