60 

C    -1.9587489   -4.4274646   -0.2275566 
C    -0.7193172   -4.8569514   -0.7109320 
C     0.2729470   -4.6338154    0.3232351 
C    -1.7360369   -3.8498129    1.1046916 
C    -0.3420406   -3.9172436    1.4442223 
C    -2.3618928   -2.5778471    1.1686613 
C    -2.4119767   -3.3240894   -1.0394983 
C    -2.8455601   -2.2759846   -0.1777517 
C    -0.3276924   -3.9601560   -1.8081388 
C    -1.3612044   -2.9637511   -1.9851186 
C     1.4190131   -4.0520614   -0.2786681 
C     0.9990670   -3.5132143   -1.5965131 
C     2.2445410   -3.2747528    0.5163651 
C     0.3317956   -2.7681032    2.0338232 
C     1.7117472   -2.6254389    1.7248920 
C    -1.8077389   -1.5069605    1.9358477 
C    -0.4189097   -1.5280351    2.3595492 
C    -2.4106926   -0.2632521    1.6838333 
C    -2.8333166   -0.9504133   -0.6344452 
C    -3.0161019    0.0030865    0.3848244 
C    -1.0256849   -1.5871852   -2.2087266 
C    -1.9640719   -0.5626399   -1.7450881 
C     1.3954247   -2.1839028   -1.9613147 
C     0.3754160   -1.1979644   -2.3281984 
C     3.0621126   -2.3238547   -0.1323620 
C     2.6000897   -1.7097364   -1.3558458 
C     2.3796556   -1.3566200    1.8551428 
C     3.3330641   -1.2534508    0.7793713 
C     0.2530263   -0.2407101    2.5453176 
C     1.6938901   -0.1774574    2.3022039 
C    -1.8587681    0.9668595    2.1206067 
C    -0.4952220    1.0357168    2.5106468 
C    -2.9545806    1.3780623    0.1135485 
C    -2.4535061    2.0243475    1.3172573 
C    -1.6863440    0.8206483   -1.9236506 
C    -2.4427310    1.8243602   -1.1456346 
C     0.7059349    0.2119406   -2.3297373 
C    -0.3553435    1.2020600   -2.3868369 
C     2.8742145   -0.3020558   -1.2733311 
C     3.4335632   -0.0472078    0.0594163 
C     2.0087431    0.6572762   -1.8279703 
C     2.2493846    1.0699916    1.8953768 
C     3.0970043    1.1184735    0.7162586 
C     0.1601312    2.3491311    2.2959251 
C     1.5339210    2.3186708    1.9396412 
C    -1.9199412    3.2821066    1.2615014 
C    -0.5895960    3.4985809    1.8164561 
C    -2.0869987    3.1964463   -1.2097107 
C    -2.0299906    4.0076169    0.0120157 
C    -0.0108488    2.5850830   -2.3745444 
C    -0.9672822    3.5989023   -2.0012202 
C     2.1667787    2.0393327   -1.3567523 
C     2.7027142    2.2540659   -0.0444091 
C     2.0127048    3.1632595    0.8534925 
C     1.2635372    3.0165784   -1.8319837 
C     0.0052210    4.5112411    0.9766099 
C    -0.9276745    4.9152952   -0.0694358 
C    -0.2827901    4.6974333   -1.3281302 
C     1.2656753    4.2107775    0.3439819 
C     1.0512860    4.2547883   -1.1012104 
