60 

C    -3.0809358   -3.0789804    0.2746121 
C    -1.8210157   -3.6731293    0.5169871 
C    -1.1789710   -3.0527257    1.6655395 
C    -3.2216609   -2.0129648    1.1886277 
C    -2.0152055   -1.9445454    2.0344682 
C    -3.5758983   -0.8279585    0.4805274 
C    -2.9875396   -2.4453653   -1.0533394 
C    -3.3949420   -1.0919273   -0.9481776 
C    -1.0731945   -3.6907730   -0.7157635 
C    -1.7251988   -2.7500917   -1.6368092 
C     0.2848996   -3.7302814   -0.6279428 
C     0.2321762   -2.9695764    1.7285522 
C     0.9430908   -3.6622092    0.6764989 
C     0.8332632   -1.7482847    2.2959585 
C    -1.4600941   -0.6878583    2.3838046 
C    -0.0018751   -0.5850380    2.5595496 
C    -3.2675813    0.4293224    1.0178520 
C    -2.2581971    0.5076579    2.0819396 
C    -3.3743375    1.5050371    0.0790256 
C    -2.7894108   -0.0910401   -1.7530233 
C    -3.0175942    1.2378558   -1.3125911 
C    -0.9318633   -1.7276218   -2.2843932 
C    -1.5447009   -0.4159735   -2.4531827 
C     1.1141174   -2.9769409   -1.5742577 
C     0.5302387   -1.8513862   -2.2694031 
C     2.2698411   -3.3067299    0.3980301 
C     2.3916838   -2.8878001   -1.0087485 
C     2.2417862   -1.5274523    2.0651380 
C     2.9573583   -2.3729502    1.1663956 
C     2.7965618   -0.1895843    1.9362401 
C     0.6150007    0.7517354    2.5848315 
C     2.0241999    0.9508839    2.2014179 
C    -1.6620671    1.7651229    2.2871899 
C    -0.2288274    1.8787586    2.5033035 
C    -2.9045243    2.7947046    0.4116796 
C    -2.0873409    2.9310652    1.5586817 
C    -2.1903699    2.3476814   -1.7314331 
C    -2.1717844    3.3523067   -0.7087536 
C    -0.6900347    0.6720040   -2.7657672 
C    -1.0066078    2.0413506   -2.4155671 
C     1.3896221   -0.6764055   -2.4606806 
C     0.7384221    0.5424378   -2.7688732 
C     3.1974720   -1.7043732   -1.0603070 
C     3.7161098   -1.4966778    0.2581762 
C     3.7269132   -0.2094707    0.8011118 
C     2.7305643   -0.5870503   -1.8413622 
C     3.7382854    0.8720316   -0.0989196 
C     3.2235612    0.6910311   -1.4475621 
C     2.4100269    2.1800269    1.5275966 
C     3.2559402    2.1067950    0.3781889 
C     0.1967302    3.1289538    1.8522512 
C    -0.9284634    3.7127760    1.2135346 
C    -0.9259134    3.8567380   -0.2273093 
C     1.4392415    3.1892767    1.2432142 
C     0.2261974    2.7458070   -2.1110080 
C     1.3066865    1.8507844   -2.4488880 
C     2.5272840    1.9305518   -1.7908568 
C     2.6389343    2.8562684   -0.6992669 
C     0.3013014    3.6044177   -0.9599515 
C     1.5186391    3.5397836   -0.1967859 
