60 

C     1.5148382   -3.9369214   -0.7895639 
C     0.2475674   -3.9059617   -1.3530927 
C    -0.7340342   -3.9850556   -0.2605027 
C     1.3425163   -3.7972330    0.6867673 
C    -0.0462594   -3.7684393    0.9896935 
C     2.2009396   -2.7703998    1.1282053 
C     2.4926195   -3.0203976   -1.2030815 
C     3.0453707   -2.4193169   -0.0065576 
C     2.1441501   -1.9396435   -2.0821391 
C    -0.1574611   -2.8157567   -2.2021650 
C     0.7925479   -1.7738937   -2.5451591 
C    -1.8488354   -3.2131160   -0.6035226 
C    -1.4997100   -2.4453272   -1.8077990 
C    -2.5591485   -2.5948699    0.4244976 
C    -0.5607386   -2.7923492    1.9122944 
C    -1.9322121   -2.4433755    1.7137546 
C     1.7234509   -1.7172510    2.0051628 
C     0.3399325   -1.7522430    2.4454127 
C     2.4558811   -0.4404771    1.9751878 
C     3.3285149   -1.0742786   -0.2560221 
C     2.8312955   -0.7590823   -1.5813100 
C     3.2500686   -0.1140519    0.7900741 
C     2.4098138    0.5389474   -1.8910840 
C     0.2767312   -0.4242093   -2.7891893 
C     1.1715898    0.7214162   -2.6399339 
C    -2.0162085   -1.1517217   -2.0104343 
C    -1.1682240   -0.1933167   -2.7276998 
C    -3.2971727   -1.3776837    0.1370662 
C    -3.0534239   -0.6650305   -1.0802283 
C    -2.4784994   -1.2334901    2.2636842 
C    -3.4213852   -0.6376407    1.3512977 
C    -0.2577316   -0.4919369    2.9280671 
C    -1.6600400   -0.2373103    2.8002416 
C     1.9112541    0.6670270    2.6882906 
C     0.5303703    0.6635093    3.0311996 
C     2.2478553    2.0282949    2.3559260 
C     3.3245635    1.2369914    0.3330449 
C     2.8613659    1.5645028   -0.9898067 
C     2.9300930    2.3125565    1.1942660 
C     2.1834644    2.8597897   -0.9148210 
C     2.1788795    3.3166769    0.4284920 
C     0.6205869    2.0411584   -2.6527626 
C     1.0543496    3.0662345   -1.6880203 
C    -1.6512652    1.1393081   -2.8255618 
C    -0.7451567    2.2300916   -2.8626570 
C    -3.3257554    0.7481391   -1.0391466 
C    -2.7578083    1.5753875   -2.0001801 
C    -3.2548652    0.7740777    1.4076548 
C    -2.1786938    1.0721301    2.3250540 
C    -3.3415415    1.5060695    0.2354401 
C    -0.0216836    2.0160895    2.7147387 
C     1.0213088    2.8454160    2.3485581 
C     0.9506704    3.5880769    1.1013242 
C    -1.3249504    2.1640015    2.1107915 
C    -0.1279416    3.6640345   -1.0836704 
C    -1.2112911    3.2691862   -1.9068072 
C    -2.4120850    2.8633594   -1.3730267 
C    -2.5738656    2.7135477    0.0495455 
C    -0.2773932    3.6656050    0.3606470 
C    -1.4872086    3.0401556    0.9295654 
