60 

C    -0.3037432   -4.7712789   -0.3707064 
C    -1.1339008   -4.4256643    0.7789142 
C    -2.2471298   -3.7512153    0.2847194 
C    -0.8134063   -4.0882348   -1.5631626 
C    -2.0385027   -3.5141882   -1.1903170 
C     0.2312772   -3.2562772   -2.1008671 
C     0.9979919   -4.3345635   -0.1339873 
C     1.4235561   -3.5773966   -1.3000130 
C    -0.2756751   -3.7443901    1.7453234 
C     1.0669803   -3.6919855    1.1817083 
C    -0.7470336   -2.5900557    2.3798892 
C    -2.6869719   -2.5253166    0.8622099 
C    -2.0399543   -2.0178187    2.0113495 
C    -2.2834235   -2.1541869   -1.4273887 
C    -2.8860007   -1.5865336   -0.2193822 
C     0.0016562   -1.8776869   -2.4298393 
C    -1.3311684   -1.3304706   -2.1540620 
C     1.1316218   -0.9306907   -2.4223734 
C     2.3798134   -2.6351800   -1.1139128 
C     2.3728165   -1.4085029   -1.8935194 
C     1.9144713   -2.5655537    1.3668895 
C     2.7987657   -2.2723612    0.2608760 
C     0.1366126   -1.4727520    2.6746954 
C     1.4737514   -1.4238223    2.1908216 
C    -1.9621672   -0.6024567    2.2039570 
C    -0.6530567   -0.2690508    2.7275574 
C    -2.8566820   -0.2187126   -0.0141193 
C    -2.5312551    0.3196746    1.2964671 
C    -1.5268597    0.0747773   -2.1010350 
C    -2.5229580    0.5986298   -1.1602022 
C     0.9081275    0.5115909   -2.4249799 
C    -0.4594951    0.9969529   -2.4892717 
C     1.8964190    1.4424390   -1.8800661 
C     3.2246760   -0.5094812   -1.2221153 
C     3.3848202   -1.0243866    0.1618582 
C     2.9916887    0.8539610   -1.1655758 
C     2.0689823   -0.0967789    2.0366543 
C     3.0967840    0.0474540    1.0481790 
C     3.1694797    1.2482938    0.2430214 
C    -0.1219817    1.0301794    2.6015466 
C     1.3135304    1.1160241    2.3643913 
C    -2.2062958    1.7204130    1.4238128 
C    -1.0308243    2.1110646    2.1941257 
C    -2.6706781    1.9604039   -0.9800774 
C    -2.6507297    2.5562430    0.3519428 
C    -0.6988802    2.3818832   -2.3962190 
C    -1.9736515    2.8688788   -1.8630678 
C     1.5556777    2.8213326   -1.5218409 
C     0.3108483    3.3460578   -1.9955763 
C     2.6204082    2.4054474    0.6828255 
C     1.7920716    2.3749141    1.8833658 
C     2.0657901    3.3582264   -0.2654524 
C    -0.4807486    3.4095717    1.9374158 
C     0.9383362    3.4854468    1.7714958 
C     1.2248314    4.1970724    0.5109296 
C    -2.1448080    3.8921795    0.1827971 
C    -1.7931578    4.0992653   -1.2408849 
C    -0.3799290    4.4255620   -1.3011738 
C    -1.0668453    4.2965959    0.9632381 
C     0.0261285    4.7164577    0.0182112 
