60 

C     1.7567973    4.1298861    0.1529917 
C     2.7305551    3.1800896   -0.0763929 
C     2.3896727    2.4593475   -1.3246406 
C     0.7903774    4.0872668   -0.9139109 
C     1.1400268    2.9872349   -1.8028536 
C    -0.4911692    4.0701434   -0.3392237 
C     1.0288479    3.7363567    1.3856293 
C    -0.3496858    3.7476172    1.1174306 
C     2.8365145    2.3641226    1.1294649 
C     1.6401583    2.5856702    1.9527969 
C     3.3141852    1.1128109    0.9820565 
C     2.7048533    1.0977450   -1.4487446 
C     3.5259617    0.5535459   -0.3757277 
C     1.7818153    0.1769977   -2.1307360 
C     0.1364377    2.0752711   -2.2842664 
C     0.4455179    0.6561101   -2.4546659 
C    -1.5209634    3.4602226   -1.0583683 
C    -1.2281756    2.4373769   -2.0543146 
C    -2.6442940    3.0351476   -0.3303507 
C    -1.1930753    2.7484892    1.6816908 
C    -2.4906573    2.6526701    1.0553677 
C     0.8571272    1.4456836    2.3747546 
C    -0.5937591    1.5503516    2.3034467 
C     2.8194785    0.0302199    1.8195022 
C     1.4979623    0.1184826    2.3768525 
C     3.6008377   -0.8075840   -0.2011067 
C     3.2534739   -1.1488683    1.1931699 
C     2.0164755   -1.2591406   -2.0230305 
C     2.9524133   -1.7490848   -1.0408059 
C     0.9661085   -2.1602963   -2.3806462 
C    -0.6745884   -0.3037343   -2.5148350 
C    -0.3901373   -1.6745011   -2.5328015 
C    -2.3066398    1.4649059   -1.9986251 
C    -3.2740717    1.9381101   -1.0427248 
C    -2.0373978    0.0786791   -2.1182186 
C    -3.2514978    1.4808448    1.2281632 
C    -3.7870718    1.0475757   -0.1047733 
C    -1.3718172    0.3164368    2.3830622 
C    -2.7303590    0.3526714    1.8640745 
C     0.7153843   -1.1136501    2.4189086 
C    -0.7332961   -0.9851493    2.4840809 
C     2.5211921   -2.3296586    1.1880747 
C     2.5663190   -2.8616026   -0.1949076 
C     1.2984771   -2.3853841    1.9273287 
C     0.8858061   -3.4653933   -1.8285797 
C     1.6065539   -3.7640180   -0.6182644 
C    -1.3067235   -2.6901752   -1.9999178 
C    -0.5120057   -3.8129759   -1.6246345 
C    -2.8215442   -0.8732664   -1.3220559 
C    -3.5968809   -0.3234850   -0.2329823 
C    -3.2350847   -0.7939367    1.1079220 
C    -2.3882931   -2.2463878   -1.1808964 
C    -1.5215048   -2.1627852    2.1409524 
C    -2.6847633   -2.0054502    1.2697157 
C    -2.5361655   -2.8975930    0.1205115 
C     0.4552124   -3.4980145    1.5699905 
C     0.6572924   -4.2337889    0.3498511 
C    -0.6356706   -4.3708929   -0.3223377 
C    -0.9500433   -3.3740631    1.7610555 
C    -1.6344991   -3.8872031    0.5374942 
