60 

C     0.8879467   -4.0958041   -0.2842439 
C     1.9140068   -3.6609168    0.5599688 
C     2.8250023   -2.8448498   -0.2227403 
C     1.0707035   -3.3725269   -1.5722383 
C     2.2438237   -2.5944436   -1.5272632 
C    -0.1591207   -2.8271465   -1.9746016 
C    -0.4684180   -3.9767567    0.0836175 
C    -1.1661117   -3.4027840   -1.0797685 
C    -0.8000093   -3.4483031    1.3615451 
C     1.5892716   -2.8943242    1.7414362 
C     0.2493449   -2.7976867    2.1291728 
C     3.2698308   -1.7637394    0.5689785 
C     2.4178899   -1.6987852    1.7699491 
C     3.6392908   -0.6124402   -0.0876939 
C     2.2239339   -1.2599056   -2.0451739 
C     3.2359730   -0.4122436   -1.4929754 
C    -0.2677335   -1.4473385   -2.4115478 
C     0.9603311   -0.6478279   -2.4823659 
C    -1.5799237   -0.8144979   -2.3190436 
C    -2.3536959   -2.7670720   -0.9255876 
C    -2.6585759   -1.5873688   -1.7266519 
C    -1.9949208   -2.6678513    1.5103802 
C    -2.8981867   -2.5507583    0.4310278 
C    -0.2727375   -1.5247811    2.5771757 
C    -1.6856490   -1.4714008    2.2773251 
C     1.9330328   -0.4449278    2.1951877 
C     0.5130856   -0.3454024    2.6061533 
C     3.5525917    0.6506160    0.5931555 
C     2.6368497    0.7592344    1.7125080 
C     3.1582245    0.9616645   -1.6661632 
C     3.5187936    1.6473647   -0.4182045 
C     0.8492760    0.8151087   -2.5169898 
C     2.0087512    1.6044103   -2.1935946 
C    -1.6876456    0.6511219   -2.3111184 
C    -0.4640731    1.4631487   -2.3941059 
C    -2.8520643    1.2430749   -1.7048296 
C    -3.7118916   -0.9341996   -1.0429365 
C    -3.7137837   -1.4252206    0.3628004 
C    -3.8103815    0.4350917   -1.0254962 
C    -2.3702891   -0.2387248    2.0797538 
C    -3.5291359   -0.2821386    1.2073367 
C    -3.7956121    0.8554581    0.3847320 
C    -0.1884404    0.9284076    2.5543475 
C    -1.6123772    1.0027875    2.2300834 
C     2.0163091    2.0081590    1.8964697 
C     0.6259831    2.1065159    2.3948356 
C     2.7683738    2.8178383   -0.3060235 
C     1.9018162    2.8876768   -1.5020289 
C     2.2008810    3.1059876    0.9666586 
C    -0.5040511    2.8139695   -1.9163033 
C     0.6739205    3.5019748   -1.4105839 
C    -2.6822996    2.4144099   -0.8750843 
C    -3.0634831    2.0348308    0.4912279 
C    -2.0964701    2.2148596    1.5480768 
C    -1.6045214    3.2353941   -1.0628675 
C     0.0758558    3.3209839    1.9633515 
C     1.0256777    3.9055936    1.0085013 
C     0.3161902    4.1813983   -0.1681108 
C    -1.2342641    3.3290723    1.3859242 
C    -1.0770945    3.9160134    0.0746560 
